@<TRIPOS>MOLECULE
*****
 45 48 0 0 0
SMALL
GASTEIGER

@<TRIPOS>ATOM
      1 C          62.4067   89.7341   11.1131 C.ar    1  UNL1        0.0959
      2 N          61.4624   90.1819   10.0371 N.ar    1  UNL1       -0.2204
      3 C          60.4482   89.2254    9.4836 C.ar    1  UNL1        0.1916
      4 N          60.3783   87.8210   10.0060 N.ar    1  UNL1       -0.2054
      5 C          61.3226   87.3732   11.0820 C.ar    1  UNL1        0.1454
      6 C          62.3368   88.3298   11.6356 C.ar    1  UNL1        0.1177
      7 C          65.2513   92.4958   11.2907 C.ar    1  UNL1        0.1755
      8 C          64.2371   91.5392   10.7372 C.ar    1  UNL1        0.0418
      9 C          63.4209   90.6907   11.6667 C.ar    1  UNL1        0.0247
     10 C          63.6189   90.7987   13.1496 C.ar    1  UNL1        0.0418
     11 C          64.6331   91.7553   13.7031 C.ar    1  UNL1        0.1755
     12 C          65.4493   92.6038   12.7736 C.ar    1  UNL1        0.2061
     13 C          67.4467   92.9085    9.9641 C.3     1  UNL1        0.2526
     14 O          66.0674   93.3443   10.3613 O.3     1  UNL1       -0.4683
     15 O          64.8312   91.8633   15.1860 O.3     1  UNL1       -0.4683
     16 C          63.9295   91.1118   16.1199 C.3     1  UNL1        0.2526
     17 O          66.4635   93.5604   13.3272 O.3     1  UNL1       -0.4654
     18 C          67.5779   93.0534   14.1938 C.3     1  UNL1        0.2528
     19 N          61.2528   85.9689   11.6044 N.pl3   1  UNL1       -0.2973
     20 H          60.5404   85.7127   12.2338 H       1  UNL1        0.1536
     21 C          62.2683   84.9549   11.1679 C.ar    1  UNL1        0.0502
     22 C          62.7853   84.9694    9.7599 C.ar    1  UNL1        0.0147
     23 C          63.8009   83.9554    9.3234 C.ar    1  UNL1        0.0021
     24 C          64.2993   82.9269   10.2949 C.ar    1  UNL1        0.0115
     25 C          63.7822   82.9124   11.7029 C.ar    1  UNL1        0.0589
     26 CL         64.2807   81.8840   12.6743 Cl      1  UNL1       -0.0822
     27 C          62.7667   83.9264   12.1394 C.ar    1  UNL1        0.0260
     28 C          63.2812   87.8820   12.7115 C.1     1  UNL1        0.1048
     29 N          64.2255   87.4342   13.7875 N.1     1  UNL1       -0.1907
     30 S          59.5039   89.6732    8.4076 S.3     1  UNL1       -0.0658
     31 C          59.8383   89.4272    6.9662 C.3     1  UNL1        0.1502
     32 C          59.3148   90.3510    5.9067 C.2     1  UNL1        0.2407
     33 O          57.8359   90.5016    5.7068 O.2     1  UNL1       -0.2737
     34 N          60.2704   91.1242    5.0469 N.am    1  UNL1       -0.2386
     35 C          59.7470   92.0479    3.9873 C.2     1  UNL1        0.3113
     36 O          58.2680   92.1985    3.7875 O.2     1  UNL1       -0.2520
     37 N          60.7025   92.8211    3.1276 N.am    1  UNL1       -0.2533
     38 H          61.2412   91.0253    5.1781 H       1  UNL1        0.1591
     39 H          61.6732   92.7222    3.2588 H       1  UNL1        0.1578
     40 C          60.1791   93.7448    2.0681 C.ar    1  UNL1        0.1353
     41 C          59.5977   93.1837    0.8043 C.ar    1  UNL1        0.0345
     42 C          59.0743   94.1075   -0.2552 C.ar    1  UNL1        0.0045
     43 C          59.1322   95.5924   -0.0511 C.ar    1  UNL1        0.0208
     44 C          59.7136   96.1535    1.2127 C.ar    1  UNL1        0.1003
     45 N          60.2371   95.2297    2.2722 N.ar    1  UNL1       -0.2290
@<TRIPOS>BOND
     1    13    14    1
     2    14     7    1
     3     7     8   ar
     4     8     9   ar
     5     9     1    1
     6     1     2   ar
     7     2     3   ar
     8     3    30    1
     9    30    31    1
    10    31    32    1
    11    32    33    2
    12    32    34   am
    13    34    35   am
    14    35    36    2
    15    35    37   am
    16    37    40    1
    17    40    41   ar
    18    41    42   ar
    19    42    43   ar
    20    43    44   ar
    21    44    45   ar
    22     3     4   ar
    23     4     5   ar
    24     5    19    1
    25    19    21    1
    26    21    22   ar
    27    22    23   ar
    28    23    24   ar
    29    24    25   ar
    30    25    26    1
    31    25    27   ar
    32     5     6   ar
    33     6    28    1
    34    28    29    3
    35     9    10   ar
    36    10    11   ar
    37    11    15    1
    38    15    16    1
    39    11    12   ar
    40    12    17    1
    41    17    18    1
    42    12     7   ar
    43     6     1   ar
    44    45    40   ar
    45    27    21   ar
    46    34    38    1
    47    37    39    1
    48    19    20    1
@<TRIPOS>MOLECULE
*****
 45 48 0 0 0
SMALL
GASTEIGER

@<TRIPOS>ATOM
      1 C          62.4315   89.7513   11.1501 C.ar    1  UNL1        0.0959
      2 N          61.4969   90.2188   10.0740 N.ar    1  UNL1       -0.2204
      3 C          60.4761   89.2778    9.5063 C.ar    1  UNL1        0.1916
      4 N          60.3897   87.8692   10.0147 N.ar    1  UNL1       -0.2054
      5 C          61.3243   87.4016   11.0908 C.ar    1  UNL1        0.1454
      6 C          62.3453   88.3427   11.6585 C.ar    1  UNL1        0.1177
      7 C          64.6695   91.7204   13.7701 C.ar    1  UNL1        0.1755
      8 C          63.6487   90.7794   13.2023 C.ar    1  UNL1        0.0418
      9 C          63.4524   90.6923   11.7178 C.ar    1  UNL1        0.0247
     10 C          64.2771   91.5463   10.8009 C.ar    1  UNL1        0.0418
     11 C          65.2979   92.4873   11.3686 C.ar    1  UNL1        0.1755
     12 C          65.4941   92.5743   12.8532 C.ar    1  UNL1        0.2061
     13 C          63.8917   91.1407   16.1802 C.3     1  UNL1        0.2526
     14 O          64.8657   91.8074   15.2546 O.3     1  UNL1       -0.4683
     15 O          66.1226   93.3414   10.4518 O.3     1  UNL1       -0.4683
     16 C          67.4546   92.8514    9.9664 C.3     1  UNL1        0.2526
     17 O          66.5150   93.5154   13.4209 O.3     1  UNL1       -0.4654
     18 C          67.6747   92.9789   14.2066 C.3     1  UNL1        0.2528
     19 N          61.2381   85.9931   11.5991 N.pl3   1  UNL1       -0.2973
     20 H          60.5109   85.7339   12.2102 H       1  UNL1        0.1536
     21 C          62.2597   84.9794   11.1766 C.ar    1  UNL1        0.0502
     22 C          62.7808   84.9811    9.7700 C.ar    1  UNL1        0.0147
     23 C          63.8025   83.9673    9.3474 C.ar    1  UNL1        0.0021
     24 C          64.3030   82.9519   10.3314 C.ar    1  UNL1        0.0115
     25 C          63.7819   82.9501   11.7380 C.ar    1  UNL1        0.0589
     26 CL         64.2824   81.9347   12.7220 Cl      1  UNL1       -0.0822
     27 C          62.7603   83.9638   12.1606 C.ar    1  UNL1        0.0260
     28 C          63.2799   87.8751   12.7345 C.1     1  UNL1        0.1048
     29 N          64.2145   87.4076   13.8106 N.1     1  UNL1       -0.1907
     30 S          59.5415   89.7454    8.4303 S.3     1  UNL1       -0.0658
     31 C          59.8452   89.4481    6.9918 C.3     1  UNL1        0.1502
     32 C          59.3295   90.3544    5.9135 C.2     1  UNL1        0.2407
     33 O          57.8522   90.4983    5.6977 O.2     1  UNL1       -0.2737
     34 N          60.2913   91.1167    5.0510 N.am    1  UNL1       -0.2386
     35 C          59.7756   92.0230    3.9727 C.2     1  UNL1        0.3113
     36 O          58.2982   92.1669    3.7569 O.2     1  UNL1       -0.2520
     37 N          60.7373   92.7854    3.1102 N.am    1  UNL1       -0.2533
     38 H          61.2610   91.0222    5.1926 H       1  UNL1        0.1591
     39 H          61.7070   92.6909    3.2519 H       1  UNL1        0.1578
     40 C          60.2217   93.6917    2.0319 C.ar    1  UNL1        0.1353
     41 C          59.6798   93.1108    0.7596 C.ar    1  UNL1        0.0345
     42 C          59.1641   94.0171   -0.3187 C.ar    1  UNL1        0.0045
     43 C          59.1903   95.5042   -0.1247 C.ar    1  UNL1        0.0208
     44 C          59.7322   96.0851    1.1477 C.ar    1  UNL1        0.1003
     45 N          60.2479   95.1788    2.2260 N.ar    1  UNL1       -0.2290
@<TRIPOS>BOND
     1    13    14    1
     2    14     7    1
     3     7     8   ar
     4     8     9   ar
     5     9     1    1
     6     1     2   ar
     7     2     3   ar
     8     3    30    1
     9    30    31    1
    10    31    32    1
    11    32    33    2
    12    32    34   am
    13    34    35   am
    14    35    36    2
    15    35    37   am
    16    37    40    1
    17    40    41   ar
    18    41    42   ar
    19    42    43   ar
    20    43    44   ar
    21    44    45   ar
    22     3     4   ar
    23     4     5   ar
    24     5    19    1
    25    19    21    1
    26    21    22   ar
    27    22    23   ar
    28    23    24   ar
    29    24    25   ar
    30    25    26    1
    31    25    27   ar
    32     5     6   ar
    33     6    28    1
    34    28    29    3
    35     9    10   ar
    36    10    11   ar
    37    11    15    1
    38    15    16    1
    39    11    12   ar
    40    12    17    1
    41    17    18    1
    42    12     7   ar
    43     6     1   ar
    44    45    40   ar
    45    27    21   ar
    46    34    38    1
    47    37    39    1
    48    19    20    1
@<TRIPOS>MOLECULE
*****
 45 48 0 0 0
SMALL
GASTEIGER

@<TRIPOS>ATOM
      1 C          62.7485   89.7757   12.6987 C.ar    1  UNL1        0.0959
      2 N          62.4290   89.3224   14.0924 N.ar    1  UNL1       -0.2204
      3 C          63.0202   90.0410   15.2689 C.ar    1  UNL1        0.1916
      4 N          63.9309   91.2130   15.0516 N.ar    1  UNL1       -0.2054
      5 C          64.2504   91.6663   13.6579 C.ar    1  UNL1        0.1454
      6 C          63.6591   90.9476   12.4814 C.ar    1  UNL1        0.1177
      7 C          61.9487   86.9149   10.0669 C.ar    1  UNL1        0.1755
      8 C          62.5398   87.6337   11.2433 C.ar    1  UNL1        0.0418
      9 C          62.1573   89.0570   11.5223 C.ar    1  UNL1        0.0247
     10 C          61.1836   89.7616   10.6249 C.ar    1  UNL1        0.0418
     11 C          60.5924   89.0428    9.4485 C.ar    1  UNL1        0.1755
     12 C          60.9750   87.6195    9.1695 C.ar    1  UNL1        0.2061
     13 C          63.1183   85.1542    8.5564 C.3     1  UNL1        0.2526
     14 O          62.3312   85.4916    9.7879 O.3     1  UNL1       -0.4683
     15 O          59.6186   89.7474    8.5510 O.3     1  UNL1       -0.4683
     16 C          59.7987   89.6973    7.0627 C.3     1  UNL1        0.2526
     17 O          60.3837   86.9008    7.9930 O.3     1  UNL1       -0.4654
     18 C          58.9328   86.5205    7.9983 C.3     1  UNL1        0.2528
     19 N          65.1610   92.8382   13.4406 N.pl3   1  UNL1       -0.2973
     20 H          64.8010   93.6816   13.0823 H       1  UNL1        0.1536
     21 C          66.6202   92.7252   13.7692 C.ar    1  UNL1        0.0502
     22 C          67.5089   91.8434   12.9430 C.ar    1  UNL1        0.0147
     23 C          68.9681   91.7304   13.2716 C.ar    1  UNL1        0.0021
     24 C          69.5386   92.4991   14.4264 C.ar    1  UNL1        0.0115
     25 C          68.6499   93.3810   15.2526 C.ar    1  UNL1        0.0589
     26 CL         69.2203   94.1497   16.4074 Cl      1  UNL1       -0.0822
     27 C          67.1907   93.4940   14.9240 C.ar    1  UNL1        0.0260
     28 C          63.9786   91.4009   11.0877 C.1     1  UNL1        0.1048
     29 N          64.2981   91.8542    9.6940 N.1     1  UNL1       -0.1907
     30 S          62.7007   89.5878   16.6626 S.3     1  UNL1       -0.0658
     31 C          63.2904   88.3136   17.1906 C.3     1  UNL1        0.1502
     32 C          62.8536   86.9945   16.6258 C.2     1  UNL1        0.2407
     33 O          61.5946   86.3466   17.1207 O.2     1  UNL1       -0.2737
     34 N          63.6759   86.3232   15.5659 N.am    1  UNL1       -0.2386
     35 C          63.2392   85.0040   15.0011 C.2     1  UNL1        0.3113
     36 O          61.9800   84.3561   15.4961 O.2     1  UNL1       -0.2520
     37 N          64.0614   84.3327   13.9413 N.am    1  UNL1       -0.2533
     38 H          64.5023   86.7484   15.2410 H       1  UNL1        0.1591
     39 H          64.8878   84.7579   13.6164 H       1  UNL1        0.1578
     40 C          63.6246   83.0135   13.3765 C.ar    1  UNL1        0.1353
     41 C          63.4560   82.8509   11.8949 C.ar    1  UNL1        0.0345
     42 C          63.0192   81.5317   11.3301 C.ar    1  UNL1        0.0045
     43 C          62.7510   80.3752   12.2469 C.ar    1  UNL1        0.0208
     44 C          62.9197   80.5378   13.7284 C.ar    1  UNL1        0.1003
     45 N          63.3564   81.8570   14.2932 N.ar    1  UNL1       -0.2290
@<TRIPOS>BOND
     1    13    14    1
     2    14     7    1
     3     7     8   ar
     4     8     9   ar
     5     9     1    1
     6     1     2   ar
     7     2     3   ar
     8     3    30    1
     9    30    31    1
    10    31    32    1
    11    32    33    2
    12    32    34   am
    13    34    35   am
    14    35    36    2
    15    35    37   am
    16    37    40    1
    17    40    41   ar
    18    41    42   ar
    19    42    43   ar
    20    43    44   ar
    21    44    45   ar
    22     3     4   ar
    23     4     5   ar
    24     5    19    1
    25    19    21    1
    26    21    22   ar
    27    22    23   ar
    28    23    24   ar
    29    24    25   ar
    30    25    26    1
    31    25    27   ar
    32     5     6   ar
    33     6    28    1
    34    28    29    3
    35     9    10   ar
    36    10    11   ar
    37    11    15    1
    38    15    16    1
    39    11    12   ar
    40    12    17    1
    41    17    18    1
    42    12     7   ar
    43     6     1   ar
    44    45    40   ar
    45    27    21   ar
    46    34    38    1
    47    37    39    1
    48    19    20    1
@<TRIPOS>MOLECULE
*****
 45 48 0 0 0
SMALL
GASTEIGER

@<TRIPOS>ATOM
      1 C          63.0691   89.4730   12.5035 C.ar    1  UNL1        0.0959
      2 N          63.2268   88.9832   13.9125 N.ar    1  UNL1       -0.2204
      3 C          63.9775   89.8097   14.9142 C.ar    1  UNL1        0.1916
      4 N          64.5705   91.1260   14.5069 N.ar    1  UNL1       -0.2054
      5 C          64.4127   91.6157   13.0979 C.ar    1  UNL1        0.1454
      6 C          63.6620   90.7892   12.0962 C.ar    1  UNL1        0.1177
      7 C          61.8926   86.3649   10.3342 C.ar    1  UNL1        0.1755
      8 C          62.6432   87.1915   11.3358 C.ar    1  UNL1        0.0418
      9 C          62.3183   88.6464   11.5018 C.ar    1  UNL1        0.0247
     10 C          61.2428   89.2748   10.6662 C.ar    1  UNL1        0.0418
     11 C          60.4922   88.4483    9.6646 C.ar    1  UNL1        0.1755
     12 C          60.8170   86.9933    9.4986 C.ar    1  UNL1        0.2061
     13 C          63.3557   84.4916    9.2855 C.3     1  UNL1        0.2526
     14 O          62.2174   84.9100   10.1682 O.3     1  UNL1       -0.4683
     15 O          59.4166   89.0767    8.8289 O.3     1  UNL1       -0.4683
     16 C          59.6235   89.2606    7.3547 C.3     1  UNL1        0.2526
     17 O          60.0663   86.1668    8.4969 O.3     1  UNL1       -0.4654
     18 C          60.7408   85.7267    7.2314 C.3     1  UNL1        0.2528
     19 N          65.0057   92.9319   12.6906 N.pl3   1  UNL1       -0.2973
     20 H          64.7134   93.7615   13.1330 H       1  UNL1        0.1536
     21 C          66.0438   92.9843   11.6092 C.ar    1  UNL1        0.0502
     22 C          67.1704   91.9939   11.6025 C.ar    1  UNL1        0.0147
     23 C          68.2086   92.0463   10.5211 C.ar    1  UNL1        0.0021
     24 C          68.1202   93.0889    9.4464 C.ar    1  UNL1        0.0115
     25 C          66.9937   94.0793    9.4531 C.ar    1  UNL1        0.0589
     26 CL         66.9053   95.1220    8.3784 Cl      1  UNL1       -0.0822
     27 C          65.9555   94.0270   10.5345 C.ar    1  UNL1        0.0260
     28 C          63.5043   91.2789   10.6872 C.1     1  UNL1        0.1048
     29 N          63.3465   91.7687    9.2782 N.1     1  UNL1       -0.1907
     30 S          64.1352   89.3199   16.3232 S.3     1  UNL1       -0.0658
     31 C          63.0056   88.5996   16.9977 C.3     1  UNL1        0.1502
     32 C          62.6196   87.2217   16.5477 C.2     1  UNL1        0.2407
     33 O          61.3918   86.5665   17.1072 O.2     1  UNL1       -0.2737
     34 N          63.4616   86.4991   15.5383 N.am    1  UNL1       -0.2386
     35 C          63.0756   85.1212   15.0883 C.2     1  UNL1        0.3113
     36 O          61.8477   84.4660   15.6478 O.2     1  UNL1       -0.2520
     37 N          63.9175   84.3985   14.0789 N.am    1  UNL1       -0.2533
     38 H          64.2675   86.9291   15.1711 H       1  UNL1        0.1591
     39 H          64.7234   84.8286   13.7117 H       1  UNL1        0.1578
     40 C          63.5315   83.0207   13.6289 C.ar    1  UNL1        0.1353
     41 C          63.1805   82.7718   12.1920 C.ar    1  UNL1        0.0345
     42 C          62.7945   81.3939   11.7420 C.ar    1  UNL1        0.0045
     43 C          62.7596   80.2649   12.7290 C.ar    1  UNL1        0.0208
     44 C          63.1106   80.5138   14.1659 C.ar    1  UNL1        0.1003
     45 N          63.4966   81.8917   14.6159 N.ar    1  UNL1       -0.2290
@<TRIPOS>BOND
     1    13    14    1
     2    14     7    1
     3     7     8   ar
     4     8     9   ar
     5     9     1    1
     6     1     2   ar
     7     2     3   ar
     8     3    30    1
     9    30    31    1
    10    31    32    1
    11    32    33    2
    12    32    34   am
    13    34    35   am
    14    35    36    2
    15    35    37   am
    16    37    40    1
    17    40    41   ar
    18    41    42   ar
    19    42    43   ar
    20    43    44   ar
    21    44    45   ar
    22     3     4   ar
    23     4     5   ar
    24     5    19    1
    25    19    21    1
    26    21    22   ar
    27    22    23   ar
    28    23    24   ar
    29    24    25   ar
    30    25    26    1
    31    25    27   ar
    32     5     6   ar
    33     6    28    1
    34    28    29    3
    35     9    10   ar
    36    10    11   ar
    37    11    15    1
    38    15    16    1
    39    11    12   ar
    40    12    17    1
    41    17    18    1
    42    12     7   ar
    43     6     1   ar
    44    45    40   ar
    45    27    21   ar
    46    34    38    1
    47    37    39    1
    48    19    20    1
@<TRIPOS>MOLECULE
*****
 45 48 0 0 0
SMALL
GASTEIGER

@<TRIPOS>ATOM
      1 C          62.7844   86.9779   12.1474 C.ar    1  UNL1        0.0959
      2 N          63.2141   87.9859   13.1717 N.ar    1  UNL1       -0.2204
      3 C          64.1090   87.5719   14.3020 C.ar    1  UNL1        0.1916
      4 N          64.5742   86.1497   14.4080 N.ar    1  UNL1       -0.2054
      5 C          64.1446   85.1417   13.3837 C.ar    1  UNL1        0.1454
      6 C          63.2496   85.5559   12.2533 C.ar    1  UNL1        0.1177
      7 C          60.8427   86.9190    8.6866 C.ar    1  UNL1        0.1755
      8 C          61.7376   86.5050    9.8170 C.ar    1  UNL1        0.0418
      9 C          61.8894   87.3920   11.0170 C.ar    1  UNL1        0.0247
     10 C          61.1463   88.6931   11.0868 C.ar    1  UNL1        0.0418
     11 C          60.2514   89.1072    9.9564 C.ar    1  UNL1        0.1755
     12 C          60.0996   88.2201    8.7564 C.ar    1  UNL1        0.2061
     13 C          61.8031   85.1056    7.0932 C.3     1  UNL1        0.2526
     14 O          60.6910   86.0320    7.4866 O.3     1  UNL1       -0.4683
     15 O          59.5082   90.4083   10.0261 O.3     1  UNL1       -0.4683
     16 C          59.1188   90.9792   11.3574 C.3     1  UNL1        0.2526
     17 O          59.2047   88.6342    7.6260 O.3     1  UNL1       -0.4654
     18 C          59.6913   89.6219    6.6074 C.3     1  UNL1        0.2528
     19 N          64.6098   83.7197   13.4896 N.pl3   1  UNL1       -0.2973
     20 H          65.5718   83.5197   13.5509 H       1  UNL1        0.1536
     21 C          63.6093   82.6023   13.5023 C.ar    1  UNL1        0.0502
     22 C          62.5116   82.5899   14.5246 C.ar    1  UNL1        0.0147
     23 C          61.5111   81.4724   14.5373 C.ar    1  UNL1        0.0021
     24 C          61.6081   80.3673   13.5277 C.ar    1  UNL1        0.0115
     25 C          62.7057   80.3797   12.5054 C.ar    1  UNL1        0.0589
     26 CL         62.8028   79.2746   11.4958 Cl      1  UNL1       -0.0822
     27 C          63.7063   81.4971   12.4927 C.ar    1  UNL1        0.0260
     28 C          62.8199   84.5478   11.2290 C.1     1  UNL1        0.1048
     29 N          62.3903   83.5398   10.2046 N.1     1  UNL1       -0.1907
     30 S          64.5386   88.5799   15.3264 S.3     1  UNL1       -0.0658
     31 C          63.8945   89.9340   15.3623 C.3     1  UNL1        0.1502
     32 C          64.5664   91.1019   14.7030 C.2     1  UNL1        0.2407
     33 O          65.1698   92.1905   15.5401 O.2     1  UNL1       -0.2737
     34 N          64.6348   91.1811   13.2066 N.am    1  UNL1       -0.2386
     35 C          65.3067   92.3489   12.5474 C.2     1  UNL1        0.3113
     36 O          65.9102   93.4376   13.3845 O.2     1  UNL1       -0.2520
     37 N          65.3752   92.4281   11.0511 N.am    1  UNL1       -0.2533
     38 H          64.2388   90.4665   12.6573 H       1  UNL1        0.1591
     39 H          64.9792   91.7136   10.5017 H       1  UNL1        0.1578
     40 C          66.0471   93.5960   10.3918 C.ar    1  UNL1        0.1353
     41 C          67.3390   93.4002    9.6552 C.ar    1  UNL1        0.0345
     42 C          68.0109   94.5681    8.9960 C.ar    1  UNL1        0.0045
     43 C          67.3909   95.9317    9.0732 C.ar    1  UNL1        0.0208
     44 C          66.0989   96.1275    9.8098 C.ar    1  UNL1        0.1003
     45 N          65.4271   94.9596   10.4690 N.ar    1  UNL1       -0.2290
@<TRIPOS>BOND
     1    13    14    1
     2    14     7    1
     3     7     8   ar
     4     8     9   ar
     5     9     1    1
     6     1     2   ar
     7     2     3   ar
     8     3    30    1
     9    30    31    1
    10    31    32    1
    11    32    33    2
    12    32    34   am
    13    34    35   am
    14    35    36    2
    15    35    37   am
    16    37    40    1
    17    40    41   ar
    18    41    42   ar
    19    42    43   ar
    20    43    44   ar
    21    44    45   ar
    22     3     4   ar
    23     4     5   ar
    24     5    19    1
    25    19    21    1
    26    21    22   ar
    27    22    23   ar
    28    23    24   ar
    29    24    25   ar
    30    25    26    1
    31    25    27   ar
    32     5     6   ar
    33     6    28    1
    34    28    29    3
    35     9    10   ar
    36    10    11   ar
    37    11    15    1
    38    15    16    1
    39    11    12   ar
    40    12    17    1
    41    17    18    1
    42    12     7   ar
    43     6     1   ar
    44    45    40   ar
    45    27    21   ar
    46    34    38    1
    47    37    39    1
    48    19    20    1
@<TRIPOS>MOLECULE
*****
 45 48 0 0 0
SMALL
GASTEIGER

@<TRIPOS>ATOM
      1 C          62.7749   86.9913   12.1498 C.ar    1  UNL1        0.0959
      2 N          63.2099   87.9989   13.1723 N.ar    1  UNL1       -0.2204
      3 C          64.1112   87.5845   14.2974 C.ar    1  UNL1        0.1916
      4 N          64.5776   86.1624   14.4000 N.ar    1  UNL1       -0.2054
      5 C          64.1426   85.1549   13.3774 C.ar    1  UNL1        0.1454
      6 C          63.2412   85.5694   12.2523 C.ar    1  UNL1        0.1177
      7 C          60.2478   89.1322    9.9633 C.ar    1  UNL1        0.1755
      8 C          61.1491   88.7177   11.0884 C.ar    1  UNL1        0.0418
      9 C          61.8735   87.4058   11.0246 C.ar    1  UNL1        0.0247
     10 C          61.6966   86.5083    9.8359 C.ar    1  UNL1        0.0418
     11 C          60.7953   86.9228    8.7108 C.ar    1  UNL1        0.1755
     12 C          60.0709   88.2347    8.7746 C.ar    1  UNL1        0.2061
     13 C          59.0842   90.9948   11.3514 C.3     1  UNL1        0.2526
     14 O          59.5234   90.4441   10.0271 O.3     1  UNL1       -0.4683
     15 O          60.6184   86.0253    7.5219 O.3     1  UNL1       -0.4683
     16 C          61.7362   85.1231    7.0903 C.3     1  UNL1        0.2526
     17 O          59.1695   88.6492    7.6494 O.3     1  UNL1       -0.4654
     18 C          59.6693   89.5943    6.5973 C.3     1  UNL1        0.2528
     19 N          64.6090   83.7330   13.4799 N.pl3   1  UNL1       -0.2973
     20 H          65.5713   83.5334   13.5368 H       1  UNL1        0.1536
     21 C          63.6090   82.6150   13.4958 C.ar    1  UNL1        0.0502
     22 C          62.5165   82.6005   14.5235 C.ar    1  UNL1        0.0147
     23 C          61.5165   81.4825   14.5393 C.ar    1  UNL1        0.0021
     24 C          61.6090   80.3791   13.5274 C.ar    1  UNL1        0.0115
     25 C          62.7015   80.3937   12.4996 C.ar    1  UNL1        0.0589
     26 CL         62.7940   79.2904   11.4877 Cl      1  UNL1       -0.0822
     27 C          63.7015   81.5116   12.4838 C.ar    1  UNL1        0.0260
     28 C          62.8063   84.5618   11.2297 C.1     1  UNL1        0.1048
     29 N          62.3713   83.5543   10.2071 N.1     1  UNL1       -0.1907
     30 S          64.5461   88.5920   15.3200 S.3     1  UNL1       -0.0658
     31 C          63.8973   89.9436   15.3644 C.3     1  UNL1        0.1502
     32 C          64.5591   91.1155   14.7021 C.2     1  UNL1        0.2407
     33 O          65.1263   92.2262   15.5355 O.2     1  UNL1       -0.2737
     34 N          64.6538   91.1766   13.2063 N.am    1  UNL1       -0.2386
     35 C          65.3157   92.3484   12.5439 C.2     1  UNL1        0.3113
     36 O          65.8829   93.4592   13.3774 O.2     1  UNL1       -0.2520
     37 N          65.4104   92.4095   11.0482 N.am    1  UNL1       -0.2533
     38 H          64.2816   90.4476   12.6593 H       1  UNL1        0.1591
     39 H          65.0382   91.6805   10.5012 H       1  UNL1        0.1578
     40 C          66.0723   93.5814   10.3859 C.ar    1  UNL1        0.1353
     41 C          67.3644   93.3942    9.6474 C.ar    1  UNL1        0.0345
     42 C          68.0263   94.5661    8.9851 C.ar    1  UNL1        0.0045
     43 C          67.3960   95.9251    9.0612 C.ar    1  UNL1        0.0208
     44 C          66.1039   96.1123    9.7996 C.ar    1  UNL1        0.1003
     45 N          65.4420   94.9404   10.4620 N.ar    1  UNL1       -0.2290
@<TRIPOS>BOND
     1    13    14    1
     2    14     7    1
     3     7     8   ar
     4     8     9   ar
     5     9     1    1
     6     1     2   ar
     7     2     3   ar
     8     3    30    1
     9    30    31    1
    10    31    32    1
    11    32    33    2
    12    32    34   am
    13    34    35   am
    14    35    36    2
    15    35    37   am
    16    37    40    1
    17    40    41   ar
    18    41    42   ar
    19    42    43   ar
    20    43    44   ar
    21    44    45   ar
    22     3     4   ar
    23     4     5   ar
    24     5    19    1
    25    19    21    1
    26    21    22   ar
    27    22    23   ar
    28    23    24   ar
    29    24    25   ar
    30    25    26    1
    31    25    27   ar
    32     5     6   ar
    33     6    28    1
    34    28    29    3
    35     9    10   ar
    36    10    11   ar
    37    11    15    1
    38    15    16    1
    39    11    12   ar
    40    12    17    1
    41    17    18    1
    42    12     7   ar
    43     6     1   ar
    44    45    40   ar
    45    27    21   ar
    46    34    38    1
    47    37    39    1
    48    19    20    1
@<TRIPOS>MOLECULE
*****
 45 48 0 0 0
SMALL
GASTEIGER

@<TRIPOS>ATOM
      1 C          62.1020   86.9985   10.8331 C.ar    1  UNL1        0.0959
      2 N          61.3448   87.0164    9.5383 N.ar    1  UNL1       -0.2204
      3 C          60.8776   88.3195    8.9608 C.ar    1  UNL1        0.1916
      4 N          61.1674   89.6047    9.6780 N.ar    1  UNL1       -0.2054
      5 C          61.9246   89.5867   10.9727 C.ar    1  UNL1        0.1454
      6 C          62.3919   88.2836   11.5503 C.ar    1  UNL1        0.1177
      7 C          62.9464   84.1516   13.4660 C.ar    1  UNL1        0.1755
      8 C          62.4792   85.4547   12.8885 C.ar    1  UNL1        0.0418
      9 C          62.5693   85.6953   11.4106 C.ar    1  UNL1        0.0247
     10 C          63.1267   84.6329   10.5104 C.ar    1  UNL1        0.0418
     11 C          63.5939   83.3298   11.0879 C.ar    1  UNL1        0.1755
     12 C          63.5038   83.0892   12.5658 C.ar    1  UNL1        0.2061
     13 C          63.2483   84.9935   15.9053 C.3     1  UNL1        0.2526
     14 O          62.8563   83.9110   14.9439 O.3     1  UNL1       -0.4683
     15 O          64.1514   82.2673   10.1877 O.3     1  UNL1       -0.4683
     16 C          63.4393   80.9548   10.0462 C.3     1  UNL1        0.2526
     17 O          63.9711   81.7860   13.1433 O.3     1  UNL1       -0.4654
     18 C          62.9722   80.7945   13.6622 C.3     1  UNL1        0.2528
     19 N          62.2145   90.8719   11.6899 N.pl3   1  UNL1       -0.2973
     20 H          61.4924   91.3454   12.1627 H       1  UNL1        0.1536
     21 C          63.6046   91.4354   11.6867 C.ar    1  UNL1        0.0502
     22 C          64.2080   91.9360   10.4078 C.ar    1  UNL1        0.0147
     23 C          65.5981   92.4996   10.4046 C.ar    1  UNL1        0.0021
     24 C          66.3848   92.5626   11.6802 C.ar    1  UNL1        0.0115
     25 C          65.7814   92.0621   12.9590 C.ar    1  UNL1        0.0589
     26 CL         66.5680   92.1251   14.2346 Cl      1  UNL1       -0.0822
     27 C          64.3913   91.4985   12.9623 C.ar    1  UNL1        0.0260
     28 C          63.1491   88.2656   12.8450 C.1     1  UNL1        0.1048
     29 N          63.9062   88.2477   14.1398 N.1     1  UNL1       -0.1907
     30 S          60.1204   88.3374    7.6660 S.3     1  UNL1       -0.0658
     31 C          58.9238   89.2282    7.5093 C.3     1  UNL1        0.1502
     32 C          58.8272   90.1546    6.3335 C.2     1  UNL1        0.2407
     33 O          57.4851   90.6292    5.8608 O.2     1  UNL1       -0.2737
     34 N          60.0729   90.6064    5.6304 N.am    1  UNL1       -0.2386
     35 C          59.9763   91.5328    4.4546 C.2     1  UNL1        0.3113
     36 O          58.6341   92.0074    3.9819 O.2     1  UNL1       -0.2520
     37 N          61.2219   91.9845    3.7515 N.am    1  UNL1       -0.2533
     38 H          60.9538   90.2948    5.9406 H       1  UNL1        0.1591
     39 H          62.1028   91.6730    4.0617 H       1  UNL1        0.1578
     40 C          61.1254   92.9109    2.5757 C.ar    1  UNL1        0.1353
     41 C          61.9419   92.6485    1.3451 C.ar    1  UNL1        0.0345
     42 C          61.8453   93.5749    0.1693 C.ar    1  UNL1        0.0045
     43 C          60.9323   94.7637    0.2241 C.ar    1  UNL1        0.0208
     44 C          60.1158   95.0261    1.4547 C.ar    1  UNL1        0.1003
     45 N          60.2123   94.0997    2.6305 N.ar    1  UNL1       -0.2290
@<TRIPOS>BOND
     1    13    14    1
     2    14     7    1
     3     7     8   ar
     4     8     9   ar
     5     9     1    1
     6     1     2   ar
     7     2     3   ar
     8     3    30    1
     9    30    31    1
    10    31    32    1
    11    32    33    2
    12    32    34   am
    13    34    35   am
    14    35    36    2
    15    35    37   am
    16    37    40    1
    17    40    41   ar
    18    41    42   ar
    19    42    43   ar
    20    43    44   ar
    21    44    45   ar
    22     3     4   ar
    23     4     5   ar
    24     5    19    1
    25    19    21    1
    26    21    22   ar
    27    22    23   ar
    28    23    24   ar
    29    24    25   ar
    30    25    26    1
    31    25    27   ar
    32     5     6   ar
    33     6    28    1
    34    28    29    3
    35     9    10   ar
    36    10    11   ar
    37    11    15    1
    38    15    16    1
    39    11    12   ar
    40    12    17    1
    41    17    18    1
    42    12     7   ar
    43     6     1   ar
    44    45    40   ar
    45    27    21   ar
    46    34    38    1
    47    37    39    1
    48    19    20    1
@<TRIPOS>MOLECULE
*****
 45 48 0 0 0
SMALL
GASTEIGER

@<TRIPOS>ATOM
      1 C          62.0889   86.9685   10.8758 C.ar    1  UNL1        0.0959
      2 N          61.3257   86.9968    9.5848 N.ar    1  UNL1       -0.2204
      3 C          60.8733   88.3061    9.0095 C.ar    1  UNL1        0.1916
      4 N          61.1841   89.5873    9.7252 N.ar    1  UNL1       -0.2054
      5 C          61.9473   89.5590   11.0162 C.ar    1  UNL1        0.1454
      6 C          62.3997   88.2496   11.5915 C.ar    1  UNL1        0.1177
      7 C          63.5764   83.2980   11.1297 C.ar    1  UNL1        0.1755
      8 C          63.1241   84.6074   10.5545 C.ar    1  UNL1        0.0418
      9 C          62.5412   85.6591   11.4511 C.ar    1  UNL1        0.0247
     10 C          62.4107   85.4016   12.9231 C.ar    1  UNL1        0.0418
     11 C          62.8631   84.0922   13.4983 C.ar    1  UNL1        0.1755
     12 C          63.4459   83.0405   12.6016 C.ar    1  UNL1        0.2061
     13 C          63.4272   80.9550   10.0171 C.3     1  UNL1        0.2526
     14 O          64.1593   82.2462   10.2330 O.3     1  UNL1       -0.4683
     15 O          62.7326   83.8346   14.9703 O.3     1  UNL1       -0.4683
     16 C          62.8923   84.9625   15.9461 C.3     1  UNL1        0.2526
     17 O          63.8983   81.7310   13.1769 O.3     1  UNL1       -0.4654
     18 C          62.8863   80.7047   13.5921 C.3     1  UNL1        0.2528
     19 N          62.2581   90.8400   11.7319 N.pl3   1  UNL1       -0.2973
     20 H          61.5458   91.3212   12.2118 H       1  UNL1        0.1536
     21 C          63.6544   91.3880   11.7165 C.ar    1  UNL1        0.0502
     22 C          64.2513   91.8839   10.4329 C.ar    1  UNL1        0.0147
     23 C          65.6476   92.4319   10.4175 C.ar    1  UNL1        0.0021
     24 C          66.4469   92.4839   11.6857 C.ar    1  UNL1        0.0115
     25 C          65.8499   91.9880   12.9694 C.ar    1  UNL1        0.0589
     26 CL         66.6492   92.0400   14.2376 Cl      1  UNL1       -0.0822
     27 C          64.4537   91.4400   12.9848 C.ar    1  UNL1        0.0260
     28 C          63.1629   88.2213   12.8826 C.1     1  UNL1        0.1048
     29 N          63.9261   88.1930   14.1736 N.1     1  UNL1       -0.1907
     30 S          60.1101   88.3344    7.7185 S.3     1  UNL1       -0.0658
     31 C          58.9205   89.2359    7.5701 C.3     1  UNL1        0.1502
     32 C          58.8032   90.1321    6.3730 C.2     1  UNL1        0.2407
     33 O          57.4498   90.5365    5.8685 O.2     1  UNL1       -0.2737
     34 N          60.0396   90.6238    5.6803 N.am    1  UNL1       -0.2386
     35 C          59.9224   91.5200    4.4832 C.2     1  UNL1        0.3113
     36 O          58.5688   91.9244    3.9787 O.2     1  UNL1       -0.2520
     37 N          61.1586   92.0117    3.7905 N.am    1  UNL1       -0.2533
     38 H          60.9279   90.3583    6.0114 H       1  UNL1        0.1591
     39 H          62.0469   91.7463    4.1215 H       1  UNL1        0.1578
     40 C          61.0414   92.9079    2.5934 C.ar    1  UNL1        0.1353
     41 C          61.7483   92.5533    1.3189 C.ar    1  UNL1        0.0345
     42 C          61.6311   93.4495    0.1217 C.ar    1  UNL1        0.0045
     43 C          60.8069   94.7003    0.1991 C.ar    1  UNL1        0.0208
     44 C          60.1000   95.0550    1.4736 C.ar    1  UNL1        0.1003
     45 N          60.2172   94.1588    2.6707 N.ar    1  UNL1       -0.2290
@<TRIPOS>BOND
     1    13    14    1
     2    14     7    1
     3     7     8   ar
     4     8     9   ar
     5     9     1    1
     6     1     2   ar
     7     2     3   ar
     8     3    30    1
     9    30    31    1
    10    31    32    1
    11    32    33    2
    12    32    34   am
    13    34    35   am
    14    35    36    2
    15    35    37   am
    16    37    40    1
    17    40    41   ar
    18    41    42   ar
    19    42    43   ar
    20    43    44   ar
    21    44    45   ar
    22     3     4   ar
    23     4     5   ar
    24     5    19    1
    25    19    21    1
    26    21    22   ar
    27    22    23   ar
    28    23    24   ar
    29    24    25   ar
    30    25    26    1
    31    25    27   ar
    32     5     6   ar
    33     6    28    1
    34    28    29    3
    35     9    10   ar
    36    10    11   ar
    37    11    15    1
    38    15    16    1
    39    11    12   ar
    40    12    17    1
    41    17    18    1
    42    12     7   ar
    43     6     1   ar
    44    45    40   ar
    45    27    21   ar
    46    34    38    1
    47    37    39    1
    48    19    20    1
@<TRIPOS>MOLECULE
*****
 45 48 0 0 0
SMALL
GASTEIGER

@<TRIPOS>ATOM
      1 C          62.9512   86.4407   12.2377 C.ar    1  UNL1        0.0959
      2 N          63.1302   86.9511   13.6368 N.ar    1  UNL1       -0.2204
      3 C          63.9011   86.1421   14.6373 C.ar    1  UNL1        0.1916
      4 N          64.4931   84.8226   14.2388 N.ar    1  UNL1       -0.2054
      5 C          64.3141   84.3122   12.8397 C.ar    1  UNL1        0.1454
      6 C          63.5431   85.1213   11.8391 C.ar    1  UNL1        0.1177
      7 C          60.3872   87.3944    9.3625 C.ar    1  UNL1        0.1755
      8 C          61.1581   86.5854   10.3631 C.ar    1  UNL1        0.0418
      9 C          62.1802   87.2498   11.2371 C.ar    1  UNL1        0.0247
     10 C          62.4314   88.7231   11.1105 C.ar    1  UNL1        0.0418
     11 C          61.6605   89.5321   10.1100 C.ar    1  UNL1        0.1755
     12 C          60.6384   88.8678    9.2360 C.ar    1  UNL1        0.2061
     13 C          59.8013   85.7768    7.4158 C.3     1  UNL1        0.2526
     14 O          59.3650   86.7300    8.4885 O.3     1  UNL1       -0.4683
     15 O          61.9117   91.0056    9.9834 O.3     1  UNL1       -0.4683
     16 C          63.3129   91.5362   10.0532 C.3     1  UNL1        0.2526
     17 O          59.8674   89.6768    8.2354 O.3     1  UNL1       -0.4654
     18 C          59.4907   89.0746    6.9143 C.3     1  UNL1        0.2528
     19 N          64.9060   82.9929   12.4412 N.pl3   1  UNL1       -0.2973
     20 H          65.8692   82.9231   12.2503 H       1  UNL1        0.1536
     21 C          64.0302   81.7799   12.3335 C.ar    1  UNL1        0.0502
     22 C          63.3965   81.2008   13.5636 C.ar    1  UNL1        0.0147
     23 C          62.5207   79.9877   13.4558 C.ar    1  UNL1        0.0021
     24 C          62.2786   79.3539   12.1181 C.ar    1  UNL1        0.0115
     25 C          62.9123   79.9330   10.8880 C.ar    1  UNL1        0.0589
     26 CL         62.6702   79.2991    9.5503 Cl      1  UNL1       -0.0822
     27 C          63.7881   81.1460   10.9957 C.ar    1  UNL1        0.0260
     28 C          63.3641   84.6110   10.4400 C.1     1  UNL1        0.1048
     29 N          63.1851   84.1006    9.0409 N.1     1  UNL1       -0.1907
     30 S          64.0801   86.6524   16.0364 S.3     1  UNL1       -0.0658
     31 C          63.4812   87.9679   16.4373 C.3     1  UNL1        0.1502
     32 C          63.5605   89.1425   15.5076 C.2     1  UNL1        0.2407
     33 O          62.3070   89.8472   15.0809 O.2     1  UNL1       -0.2737
     34 N          64.8934   89.6123   15.0047 N.am    1  UNL1       -0.2386
     35 C          64.9727   90.7868   14.0751 C.2     1  UNL1        0.3113
     36 O          63.7191   91.4915   13.6484 O.2     1  UNL1       -0.2520
     37 N          66.3054   91.2566   13.5722 N.am    1  UNL1       -0.2533
     38 H          65.7161   89.1497   15.2848 H       1  UNL1        0.1591
     39 H          67.1282   90.7941   13.8522 H       1  UNL1        0.1578
     40 C          66.3847   92.4311   12.6425 C.ar    1  UNL1        0.1353
     41 C          66.2643   93.8251   13.1833 C.ar    1  UNL1        0.0345
     42 C          66.3436   94.9996   12.2536 C.ar    1  UNL1        0.0045
     43 C          66.5433   94.7802   10.7833 C.ar    1  UNL1        0.0208
     44 C          66.6637   93.3862   10.2426 C.ar    1  UNL1        0.1003
     45 N          66.5844   92.2117   11.1722 N.ar    1  UNL1       -0.2290
@<TRIPOS>BOND
     1    13    14    1
     2    14     7    1
     3     7     8   ar
     4     8     9   ar
     5     9     1    1
     6     1     2   ar
     7     2     3   ar
     8     3    30    1
     9    30    31    1
    10    31    32    1
    11    32    33    2
    12    32    34   am
    13    34    35   am
    14    35    36    2
    15    35    37   am
    16    37    40    1
    17    40    41   ar
    18    41    42   ar
    19    42    43   ar
    20    43    44   ar
    21    44    45   ar
    22     3     4   ar
    23     4     5   ar
    24     5    19    1
    25    19    21    1
    26    21    22   ar
    27    22    23   ar
    28    23    24   ar
    29    24    25   ar
    30    25    26    1
    31    25    27   ar
    32     5     6   ar
    33     6    28    1
    34    28    29    3
    35     9    10   ar
    36    10    11   ar
    37    11    15    1
    38    15    16    1
    39    11    12   ar
    40    12    17    1
    41    17    18    1
    42    12     7   ar
    43     6     1   ar
    44    45    40   ar
    45    27    21   ar
    46    34    38    1
    47    37    39    1
    48    19    20    1
