@<TRIPOS>MOLECULE
*****
 27 29 0 0 0
SMALL
GASTEIGER

@<TRIPOS>ATOM
      1 N          62.4792   90.3703   11.4225 N.am    1  UNL1       -0.2438
      2 C          62.9678   91.1997   10.2721 C.3     1  UNL1        0.1009
      3 C          64.2057   92.0336   10.4212 C.3     1  UNL1        0.0662
      4 C          64.9551   92.0380   11.7206 C.3     1  UNL1        0.1602
      5 O          64.4665   91.2086   12.8710 O.3     1  UNL1       -0.4374
      6 C          63.2286   90.3748   12.7220 C.2     1  UNL1        0.4051
      7 O          62.7400   89.5454   13.8723 O.2     1  UNL1       -0.2262
      8 C          65.8066   92.9830   10.9256 C.ar    1  UNL1        0.0140
      9 C          67.0067   92.4700   10.1862 C.ar    1  UNL1        0.0014
     10 C          67.8582   93.4149    9.3912 C.ar    1  UNL1        0.0294
     11 C          67.5097   94.8728    9.3356 C.ar    1  UNL1        0.1401
     12 F          68.3612   95.8178    8.5406 F       1  UNL1       -0.2042
     13 C          66.3096   95.3858   10.0750 C.ar    1  UNL1        0.0294
     14 C          65.4581   94.4409   10.8700 C.ar    1  UNL1        0.0014
     15 C          60.0523   89.7957   12.1504 C.3     1  UNL1        0.0265
     16 C          61.2413   89.5364   11.2734 C.3     1  UNL1        0.1011
     17 C          61.1924   88.4433   10.2474 C.ar    1  UNL1       -0.0041
     18 C          60.1195   88.4460    9.1991 C.ar    1  UNL1       -0.0022
     19 C          60.0707   87.3529    8.1732 C.ar    1  UNL1        0.0064
     20 C          61.0947   86.2571    8.1955 C.ar    1  UNL1        0.0345
     21 BR         61.0458   85.1639    7.1694 Br      1  UNL1       -0.0490
     22 C          62.1675   86.2543    9.2437 C.ar    1  UNL1        0.0064
     23 C          62.2164   87.3474   10.2697 C.ar    1  UNL1       -0.0022
     24 C          66.0002   92.3707   12.7439 C.3     1  UNL1        0.0762
     25 C          65.7980   91.9781   14.1774 C.3     1  UNL1        0.1411
     26 O          65.6178   93.0352   15.2263 O.3     1  UNL1       -0.3819
     27 H          66.4366   93.5481   15.3124 H       1  UNL1        0.2104
@<TRIPOS>BOND
     1    16    15    1
     2    16    17    1
     3    17    18   ar
     4    18    19   ar
     5    19    20   ar
     6    20    21    1
     7    20    22   ar
     8    22    23   ar
     9    16     1    1
    10     1     2    1
    11     2     3    1
    12     3     4    1
    13     4    24    1
    14    24    25    1
    15    25    26    1
    16     4     8    1
    17     8     9   ar
    18     9    10   ar
    19    10    11   ar
    20    11    12    1
    21    11    13   ar
    22    13    14   ar
    23     4     5    1
    24     5     6    1
    25     6     7    2
    26    23    17   ar
    27     6     1   am
    28    14     8   ar
    29    26    27    1
@<TRIPOS>MOLECULE
*****
 27 29 0 0 0
SMALL
GASTEIGER

@<TRIPOS>ATOM
      1 N          63.0024   90.2937   11.6084 N.am    1  UNL1       -0.2438
      2 C          63.4139   91.1183   10.4249 C.3     1  UNL1        0.1009
      3 C          64.5187   92.1240   10.5592 C.3     1  UNL1        0.0662
      4 C          65.2120   92.3051   11.8769 C.3     1  UNL1        0.1602
      5 O          64.8005   91.4805   13.0605 O.3     1  UNL1       -0.4374
      6 C          63.6956   90.4748   12.9262 C.2     1  UNL1        0.4051
      7 O          63.2841   89.6503   14.1097 O.2     1  UNL1       -0.2262
      8 C          65.9538   93.3143   11.0515 C.ar    1  UNL1        0.0140
      9 C          66.9468   92.8586   10.0238 C.ar    1  UNL1        0.0014
     10 C          67.6886   93.8678    9.1984 C.ar    1  UNL1        0.0294
     11 C          67.4373   95.3327    9.4007 C.ar    1  UNL1        0.1401
     12 F          68.1791   96.3419    8.5753 F       1  UNL1       -0.2042
     13 C          66.4442   95.7884   10.4284 C.ar    1  UNL1        0.0294
     14 C          65.7024   94.7792   11.2538 C.ar    1  UNL1        0.0014
     15 C          60.4784   89.6926   11.7429 C.3     1  UNL1        0.0265
     16 C          61.8976   89.2881   11.4741 C.3     1  UNL1        0.1011
     17 C          62.2120   87.8778   11.0710 C.ar    1  UNL1       -0.0041
     18 C          62.1383   87.4762    9.6277 C.ar    1  UNL1       -0.0022
     19 C          62.4527   86.0660    9.2246 C.ar    1  UNL1        0.0064
     20 C          62.8408   85.0575   10.2649 C.ar    1  UNL1        0.0345
     21 BR         63.1553   83.6472    9.8618 Br      1  UNL1       -0.0490
     22 C          62.9146   85.4591   11.7082 C.ar    1  UNL1        0.0064
     23 C          62.6002   86.8693   12.1113 C.ar    1  UNL1       -0.0022
     24 C          66.1629   92.8367   12.9081 C.3     1  UNL1        0.0762
     25 C          67.1056   91.9049   13.6102 C.3     1  UNL1        0.1411
     26 O          68.4921   91.6982   13.0766 O.3     1  UNL1       -0.3819
     27 H          68.4441   91.2598   12.2126 H       1  UNL1        0.2104
@<TRIPOS>BOND
     1    16    15    1
     2    16    17    1
     3    17    18   ar
     4    18    19   ar
     5    19    20   ar
     6    20    21    1
     7    20    22   ar
     8    22    23   ar
     9    16     1    1
    10     1     2    1
    11     2     3    1
    12     3     4    1
    13     4    24    1
    14    24    25    1
    15    25    26    1
    16     4     8    1
    17     8     9   ar
    18     9    10   ar
    19    10    11   ar
    20    11    12    1
    21    11    13   ar
    22    13    14   ar
    23     4     5    1
    24     5     6    1
    25     6     7    2
    26    23    17   ar
    27     6     1   am
    28    14     8   ar
    29    26    27    1
@<TRIPOS>MOLECULE
*****
 27 29 0 0 0
SMALL
GASTEIGER

@<TRIPOS>ATOM
      1 N          62.5337   90.2558   11.8204 N.am    1  UNL1       -0.2438
      2 C          63.1752   90.1243   13.1699 C.3     1  UNL1        0.1009
      3 C          64.4464   90.8614   13.4711 C.3     1  UNL1        0.0662
      4 C          65.0760   91.7301   12.4229 C.3     1  UNL1        0.1602
      5 O          64.4345   91.8617   11.0733 O.3     1  UNL1       -0.4374
      6 C          63.1633   91.1246   10.7721 C.2     1  UNL1        0.4051
      7 O          62.5218   91.2561    9.4227 O.2     1  UNL1       -0.2262
      8 C          66.0542   91.9236   13.5435 C.ar    1  UNL1        0.0140
      9 C          65.5592   92.2139   14.9294 C.ar    1  UNL1        0.0014
     10 C          66.5374   92.4073   16.0500 C.ar    1  UNL1        0.0294
     11 C          68.0106   92.3105   15.7847 C.ar    1  UNL1        0.1401
     12 F          68.9888   92.5039   16.9053 F       1  UNL1       -0.2042
     13 C          68.5056   92.0202   14.3988 C.ar    1  UNL1        0.0294
     14 C          67.5274   91.8267   13.2782 C.ar    1  UNL1        0.0014
     15 C          60.0078   89.8486   12.2721 C.3     1  UNL1        0.0265
     16 C          61.2625   89.5187   11.5192 C.3     1  UNL1        0.1011
     17 C          61.2461   88.4516   10.4651 C.ar    1  UNL1       -0.0041
     18 C          60.1724   88.4486    9.4177 C.ar    1  UNL1       -0.0022
     19 C          60.1560   87.3815    8.3636 C.ar    1  UNL1        0.0064
     20 C          61.2133   86.3176    8.3569 C.ar    1  UNL1        0.0345
     21 BR         61.1968   85.2505    7.3027 Br      1  UNL1       -0.0490
     22 C          62.2870   86.3206    9.4043 C.ar    1  UNL1        0.0064
     23 C          62.3034   87.3876   10.4584 C.ar    1  UNL1       -0.0022
     24 C          66.0454   92.6660   11.7638 C.3     1  UNL1        0.0762
     25 C          65.6756   93.3466   10.4793 C.3     1  UNL1        0.1411
     26 O          65.1523   94.7522   10.4989 O.3     1  UNL1       -0.3819
     27 H          64.2916   94.7706   10.9460 H       1  UNL1        0.2104
@<TRIPOS>BOND
     1    16    15    1
     2    16    17    1
     3    17    18   ar
     4    18    19   ar
     5    19    20   ar
     6    20    21    1
     7    20    22   ar
     8    22    23   ar
     9    16     1    1
    10     1     2    1
    11     2     3    1
    12     3     4    1
    13     4    24    1
    14    24    25    1
    15    25    26    1
    16     4     8    1
    17     8     9   ar
    18     9    10   ar
    19    10    11   ar
    20    11    12    1
    21    11    13   ar
    22    13    14   ar
    23     4     5    1
    24     5     6    1
    25     6     7    2
    26    23    17   ar
    27     6     1   am
    28    14     8   ar
    29    26    27    1
@<TRIPOS>MOLECULE
*****
 27 29 0 0 0
SMALL
GASTEIGER

@<TRIPOS>ATOM
      1 N          63.0742   89.9356   11.9068 N.am    1  UNL1       -0.2438
      2 C          63.8459   89.7479   13.1792 C.3     1  UNL1        0.1009
      3 C          64.9490   90.7001   13.5347 C.3     1  UNL1        0.0662
      4 C          65.2804   91.8400   12.6178 C.3     1  UNL1        0.1602
      5 O          64.5086   92.0277   11.3453 O.3     1  UNL1       -0.4374
      6 C          63.4055   91.0755   10.9898 C.2     1  UNL1        0.4051
      7 O          62.6338   91.2632    9.7173 O.2     1  UNL1       -0.2262
      8 C          66.2889   92.0768   13.7027 C.ar    1  UNL1        0.0140
      9 C          65.8331   92.4566   15.0804 C.ar    1  UNL1        0.0014
     10 C          66.8416   92.6934   16.1653 C.ar    1  UNL1        0.0294
     11 C          68.3058   92.5503   15.8724 C.ar    1  UNL1        0.1401
     12 F          69.3143   92.7870   16.9573 F       1  UNL1       -0.2042
     13 C          68.7615   92.1704   14.4948 C.ar    1  UNL1        0.0294
     14 C          67.7530   91.9336   13.4099 C.ar    1  UNL1        0.0014
     15 C          60.5432   89.4410   11.5915 C.3     1  UNL1        0.0265
     16 C          61.9710   88.9833   11.5512 C.3     1  UNL1        0.1011
     17 C          62.2959   87.5734   11.1554 C.ar    1  UNL1       -0.0041
     18 C          62.6944   86.5739   12.2005 C.ar    1  UNL1       -0.0022
     19 C          63.0192   85.1640   11.8046 C.ar    1  UNL1        0.0064
     20 C          62.9455   84.7537   10.3638 C.ar    1  UNL1        0.0345
     21 BR         63.2703   83.3437    9.9679 Br      1  UNL1       -0.0490
     22 C          62.5470   85.7531    9.3187 C.ar    1  UNL1        0.0064
     23 C          62.2222   87.1630    9.7145 C.ar    1  UNL1       -0.0022
     24 C          65.9620   93.0622   12.0777 C.3     1  UNL1        0.0762
     25 C          65.7002   93.5061   10.6690 C.3     1  UNL1        0.1411
     26 O          65.1250   94.8663   10.4059 O.3     1  UNL1       -0.3819
     27 H          64.2230   94.9099   10.7602 H       1  UNL1        0.2104
@<TRIPOS>BOND
     1    16    15    1
     2    16    17    1
     3    17    18   ar
     4    18    19   ar
     5    19    20   ar
     6    20    21    1
     7    20    22   ar
     8    22    23   ar
     9    16     1    1
    10     1     2    1
    11     2     3    1
    12     3     4    1
    13     4    24    1
    14    24    25    1
    15    25    26    1
    16     4     8    1
    17     8     9   ar
    18     9    10   ar
    19    10    11   ar
    20    11    12    1
    21    11    13   ar
    22    13    14   ar
    23     4     5    1
    24     5     6    1
    25     6     7    2
    26    23    17   ar
    27     6     1   am
    28    14     8   ar
    29    26    27    1
@<TRIPOS>MOLECULE
*****
 27 29 0 0 0
SMALL
GASTEIGER

@<TRIPOS>ATOM
      1 N          61.7644   88.3328   11.2334 N.am    1  UNL1       -0.2438
      2 C          62.2264   89.7593   11.1936 C.3     1  UNL1        0.1009
      3 C          63.2695   90.2371   12.1598 C.3     1  UNL1        0.0662
      4 C          63.8506   89.2883   13.1658 C.3     1  UNL1        0.1602
      5 O          63.3886   87.8618   13.2057 O.3     1  UNL1       -0.4374
      6 C          62.3455   87.3840   12.2395 C.2     1  UNL1        0.4051
      7 O          61.8834   85.9575   12.2793 O.2     1  UNL1       -0.2262
      8 C          64.6056   90.5358   13.5179 C.ar    1  UNL1        0.0140
      9 C          64.9882   90.8038   14.9433 C.ar    1  UNL1        0.0014
     10 C          65.7431   92.0513   15.2953 C.ar    1  UNL1        0.0294
     11 C          66.1153   93.0307   14.2219 C.ar    1  UNL1        0.1401
     12 F          66.8703   94.2782   14.5740 F       1  UNL1       -0.2042
     13 C          65.7327   92.7627   12.7965 C.ar    1  UNL1        0.0294
     14 C          64.9778   91.5152   12.4445 C.ar    1  UNL1        0.0014
     15 C          59.3012   88.3173   10.4073 C.3     1  UNL1        0.0265
     16 C          60.7212   87.8551   10.2671 C.3     1  UNL1        0.1011
     17 C          61.0982   86.9150    9.1607 C.ar    1  UNL1       -0.0041
     18 C          60.0754   86.5067    8.1423 C.ar    1  UNL1       -0.0022
     19 C          60.4524   85.5667    7.0359 C.ar    1  UNL1        0.0064
     20 C          61.8522   85.0349    6.9479 C.ar    1  UNL1        0.0345
     21 BR         62.2292   84.0948    5.8414 Br      1  UNL1       -0.0490
     22 C          62.8750   85.4432    7.9662 C.ar    1  UNL1        0.0064
     23 C          62.4980   86.3832    9.0726 C.ar    1  UNL1       -0.0022
     24 C          64.6939   88.7728   14.2942 C.3     1  UNL1        0.0762
     25 C          64.4753   87.3854   14.8208 C.3     1  UNL1        0.1411
     26 O          63.4890   87.1495   15.9261 O.3     1  UNL1       -0.3819
     27 H          63.8009   87.5831   16.7357 H       1  UNL1        0.2104
@<TRIPOS>BOND
     1    16    15    1
     2    16    17    1
     3    17    18   ar
     4    18    19   ar
     5    19    20   ar
     6    20    21    1
     7    20    22   ar
     8    22    23   ar
     9    16     1    1
    10     1     2    1
    11     2     3    1
    12     3     4    1
    13     4    24    1
    14    24    25    1
    15    25    26    1
    16     4     8    1
    17     8     9   ar
    18     9    10   ar
    19    10    11   ar
    20    11    12    1
    21    11    13   ar
    22    13    14   ar
    23     4     5    1
    24     5     6    1
    25     6     7    2
    26    23    17   ar
    27     6     1   am
    28    14     8   ar
    29    26    27    1
@<TRIPOS>MOLECULE
*****
 27 29 0 0 0
SMALL
GASTEIGER

@<TRIPOS>ATOM
      1 N          63.7222   88.8873   13.4229 N.am    1  UNL1       -0.2438
      2 C          64.2610   87.6901   14.1483 C.3     1  UNL1        0.1009
      3 C          63.8793   86.3093   13.7038 C.3     1  UNL1        0.0662
      4 C          62.9587   86.1257   12.5339 C.3     1  UNL1        0.1602
      5 O          62.4198   87.3230   11.8084 O.3     1  UNL1       -0.4374
      6 C          62.8016   88.7038   12.2529 C.2     1  UNL1        0.4051
      7 O          62.2628   89.9010   11.5275 O.2     1  UNL1       -0.2262
      8 C          63.2078   84.6917   12.8968 C.ar    1  UNL1        0.0140
      9 C          63.9890   83.8083   11.9698 C.ar    1  UNL1        0.0014
     10 C          64.2382   82.3743   12.3327 C.ar    1  UNL1        0.0294
     11 C          63.7061   81.8238   13.6226 C.ar    1  UNL1        0.1401
     12 F          63.9552   80.3898   13.9855 F       1  UNL1       -0.2042
     13 C          62.9248   82.7072   14.5496 C.ar    1  UNL1        0.0294
     14 C          62.6757   84.1412   14.1867 C.ar    1  UNL1        0.0014
     15 C          63.7237   90.7471   15.2370 C.3     1  UNL1        0.0265
     16 C          64.1040   90.2681   13.8674 C.3     1  UNL1        0.1011
     17 C          64.8662   91.1700   12.9422 C.ar    1  UNL1       -0.0041
     18 C          64.2551   91.5992   11.6413 C.ar    1  UNL1       -0.0022
     19 C          65.0173   92.5010   10.7162 C.ar    1  UNL1        0.0064
     20 C          66.3904   92.9736   11.0920 C.ar    1  UNL1        0.0345
     21 BR         67.1525   93.8754   10.1668 Br      1  UNL1       -0.0490
     22 C          67.0014   92.5443   12.3929 C.ar    1  UNL1        0.0064
     23 C          66.2393   91.6425   13.3180 C.ar    1  UNL1       -0.0022
     24 C          62.1245   85.4441   11.4900 C.3     1  UNL1        0.0762
     25 C          61.5901   86.2275   10.3279 C.3     1  UNL1        0.1411
     26 O          62.4205   86.3934    9.0897 O.3     1  UNL1       -0.3819
     27 H          63.2058   86.9241    9.2958 H       1  UNL1        0.2104
@<TRIPOS>BOND
     1    16    15    1
     2    16    17    1
     3    17    18   ar
     4    18    19   ar
     5    19    20   ar
     6    20    21    1
     7    20    22   ar
     8    22    23   ar
     9    16     1    1
    10     1     2    1
    11     2     3    1
    12     3     4    1
    13     4    24    1
    14    24    25    1
    15    25    26    1
    16     4     8    1
    17     8     9   ar
    18     9    10   ar
    19    10    11   ar
    20    11    12    1
    21    11    13   ar
    22    13    14   ar
    23     4     5    1
    24     5     6    1
    25     6     7    2
    26    23    17   ar
    27     6     1   am
    28    14     8   ar
    29    26    27    1
@<TRIPOS>MOLECULE
*****
 27 29 0 0 0
SMALL
GASTEIGER

@<TRIPOS>ATOM
      1 N          63.1281   84.3651   11.7014 N.am    1  UNL1       -0.2438
      2 C          62.0094   85.3643   11.6983 C.3     1  UNL1        0.1009
      3 C          61.5545   85.9768   10.4069 C.3     1  UNL1        0.0662
      4 C          62.2184   85.5902    9.1185 C.3     1  UNL1        0.1602
      5 O          63.3372   84.5910    9.1216 O.3     1  UNL1       -0.4374
      6 C          63.7920   83.9784   10.4131 C.2     1  UNL1        0.4051
      7 O          64.9107   82.9792   10.4162 O.2     1  UNL1       -0.2262
      8 C          61.2084   86.5738    8.6062 C.ar    1  UNL1        0.0140
      9 C          60.1061   86.1132    7.6991 C.ar    1  UNL1        0.0014
     10 C          59.0960   87.0968    7.1868 C.ar    1  UNL1        0.0294
     11 C          59.1884   88.5409    7.5815 C.ar    1  UNL1        0.1401
     12 F          58.1784   89.5245    7.0692 F       1  UNL1       -0.2042
     13 C          60.2907   89.0016    8.4886 C.ar    1  UNL1        0.0294
     14 C          61.3007   88.0180    9.0009 C.ar    1  UNL1        0.0014
     15 C          64.2195   82.3943   12.9956 C.3     1  UNL1        0.0265
     16 C          63.5830   83.7525   12.9929 C.3     1  UNL1        0.1011
     17 C          63.4014   84.4982   14.2817 C.ar    1  UNL1       -0.0041
     18 C          62.2903   84.1211   15.2162 C.ar    1  UNL1       -0.0022
     19 C          62.1087   84.8668   16.5049 C.ar    1  UNL1        0.0064
     20 C          63.0381   85.9896   16.8592 C.ar    1  UNL1        0.0345
     21 BR         62.8565   86.7353   18.1480 Br      1  UNL1       -0.0490
     22 C          64.1492   86.3667   15.9247 C.ar    1  UNL1        0.0064
     23 C          64.3308   85.6210   14.6360 C.ar    1  UNL1       -0.0022
     24 C          62.5315   85.5452    7.6522 C.3     1  UNL1        0.0762
     25 C          62.5320   84.2331    6.9254 C.3     1  UNL1        0.1411
     26 O          61.9246   84.1332    5.5575 O.3     1  UNL1       -0.3819
     27 H          60.9684   84.2857    5.6164 H       1  UNL1        0.2104
@<TRIPOS>BOND
     1    16    15    1
     2    16    17    1
     3    17    18   ar
     4    18    19   ar
     5    19    20   ar
     6    20    21    1
     7    20    22   ar
     8    22    23   ar
     9    16     1    1
    10     1     2    1
    11     2     3    1
    12     3     4    1
    13     4    24    1
    14    24    25    1
    15    25    26    1
    16     4     8    1
    17     8     9   ar
    18     9    10   ar
    19    10    11   ar
    20    11    12    1
    21    11    13   ar
    22    13    14   ar
    23     4     5    1
    24     5     6    1
    25     6     7    2
    26    23    17   ar
    27     6     1   am
    28    14     8   ar
    29    26    27    1
@<TRIPOS>MOLECULE
*****
 27 29 0 0 0
SMALL
GASTEIGER

@<TRIPOS>ATOM
      1 N          61.9336   88.7838   10.8458 N.am    1  UNL1       -0.2438
      2 C          62.5837   87.8385   11.8121 C.3     1  UNL1        0.1009
      3 C          62.7107   86.3840   11.4680 C.3     1  UNL1        0.0662
      4 C          62.1875   85.8749   10.1577 C.3     1  UNL1        0.1602
      5 O          61.5373   86.8202    9.1914 O.3     1  UNL1       -0.4374
      6 C          61.4104   88.2747    9.5354 C.2     1  UNL1        0.4051
      7 O          60.7603   89.2200    8.5692 O.2     1  UNL1       -0.2262
      8 C          62.7202   84.5988   10.7390 C.ar    1  UNL1        0.0140
      9 C          63.6293   83.7261    9.9255 C.ar    1  UNL1        0.0014
     10 C          64.1620   82.4500   10.5068 C.ar    1  UNL1        0.0294
     11 C          63.7855   82.0467   11.9017 C.ar    1  UNL1        0.1401
     12 F          64.3182   80.7706   12.4830 F       1  UNL1       -0.2042
     13 C          62.8764   82.9194   12.7152 C.ar    1  UNL1        0.0294
     14 C          62.3437   84.1955   12.1339 C.ar    1  UNL1        0.0014
     15 C          60.4537   90.8846   11.2282 C.3     1  UNL1        0.0265
     16 C          61.8067   90.2383   11.1899 C.3     1  UNL1        0.1011
     17 C          63.0329   91.0464   11.4957 C.ar    1  UNL1       -0.0041
     18 C          63.5683   91.0962   12.8960 C.ar    1  UNL1       -0.0022
     19 C          64.7945   91.9043   13.2017 C.ar    1  UNL1        0.0064
     20 C          65.4851   92.6627   12.1072 C.ar    1  UNL1        0.0345
     21 BR         66.7113   93.4708   12.4131 Br      1  UNL1       -0.0490
     22 C          64.9496   92.6129   10.7070 C.ar    1  UNL1        0.0064
     23 C          63.7235   91.8048   10.4012 C.ar    1  UNL1       -0.0022
     24 C          61.8493   84.9225    9.0492 C.3     1  UNL1        0.0762
     25 C          61.5090   85.4484    7.6863 C.3     1  UNL1        0.1411
     26 O          60.0927   85.3976    7.1949 O.3     1  UNL1       -0.3819
     27 H          59.8218   84.4728    7.0843 H       1  UNL1        0.2104
@<TRIPOS>BOND
     1    16    15    1
     2    16    17    1
     3    17    18   ar
     4    18    19   ar
     5    19    20   ar
     6    20    21    1
     7    20    22   ar
     8    22    23   ar
     9    16     1    1
    10     1     2    1
    11     2     3    1
    12     3     4    1
    13     4    24    1
    14    24    25    1
    15    25    26    1
    16     4     8    1
    17     8     9   ar
    18     9    10   ar
    19    10    11   ar
    20    11    12    1
    21    11    13   ar
    22    13    14   ar
    23     4     5    1
    24     5     6    1
    25     6     7    2
    26    23    17   ar
    27     6     1   am
    28    14     8   ar
    29    26    27    1
@<TRIPOS>MOLECULE
*****
 27 29 0 0 0
SMALL
GASTEIGER

@<TRIPOS>ATOM
      1 N          45.5360   73.0011   18.4913 N.am    1  UNL1       -0.2438
      2 C          44.9586   74.3790   18.3576 C.3     1  UNL1        0.1009
      3 C          45.7465   75.5702   18.8164 C.3     1  UNL1        0.0662
      4 C          47.1118   75.3833   19.4089 C.3     1  UNL1        0.1602
      5 O          47.6893   74.0054   19.5426 O.3     1  UNL1       -0.4374
      6 C          46.9014   72.8143   19.0838 C.2     1  UNL1        0.4051
      7 O          47.4787   71.4363   19.2175 O.2     1  UNL1       -0.2262
      8 C          46.9944   76.8765   19.4909 C.ar    1  UNL1        0.0140
      9 C          46.1926   77.5065   20.5909 C.ar    1  UNL1        0.0014
     10 C          46.0752   78.9997   20.6729 C.ar    1  UNL1        0.0294
     11 C          46.7596   79.8628   19.6547 C.ar    1  UNL1        0.1401
     12 F          46.6422   81.3560   19.7367 F       1  UNL1       -0.2042
     13 C          47.5614   79.2328   18.5547 C.ar    1  UNL1        0.0294
     14 C          47.6788   77.7396   18.4727 C.ar    1  UNL1        0.0014
     15 C          43.6330   71.2760   18.8818 C.3     1  UNL1        0.0265
     16 C          44.7481   71.8100   18.0325 C.3     1  UNL1        0.1011
     17 C          45.0754   71.1529   16.7244 C.ar    1  UNL1       -0.0041
     18 C          46.1115   70.0698   16.6676 C.ar    1  UNL1       -0.0022
     19 C          46.4387   69.4128   15.3595 C.ar    1  UNL1        0.0064
     20 C          45.7299   69.8389   14.1081 C.ar    1  UNL1        0.0345
     21 BR         46.0571   69.1818   12.8000 Br      1  UNL1       -0.0490
     22 C          44.6938   70.9220   14.1649 C.ar    1  UNL1        0.0064
     23 C          44.3665   71.5790   15.4730 C.ar    1  UNL1       -0.0022
     24 C          48.4363   75.7151   20.0299 C.3     1  UNL1        0.0762
     25 C          49.6529   74.9123   19.6757 C.3     1  UNL1        0.1411
     26 O          50.3783   74.1412   20.7384 O.3     1  UNL1       -0.3819
     27 H          50.7711   74.7590   21.3748 H       1  UNL1        0.2104
@<TRIPOS>BOND
     1    16    15    1
     2    16    17    1
     3    17    18   ar
     4    18    19   ar
     5    19    20   ar
     6    20    21    1
     7    20    22   ar
     8    22    23   ar
     9    16     1    1
    10     1     2    1
    11     2     3    1
    12     3     4    1
    13     4    24    1
    14    24    25    1
    15    25    26    1
    16     4     8    1
    17     8     9   ar
    18     9    10   ar
    19    10    11   ar
    20    11    12    1
    21    11    13   ar
    22    13    14   ar
    23     4     5    1
    24     5     6    1
    25     6     7    2
    26    23    17   ar
    27     6     1   am
    28    14     8   ar
    29    26    27    1
