@<TRIPOS>MOLECULE
*****
 37 40 0 0 0
SMALL
GASTEIGER

@<TRIPOS>ATOM
      1 C          62.6405   91.2323    9.9019 C.3     1  UNL1        0.0518
      2 C          63.2551   90.5941   11.1123 C.ar    1  UNL1        0.0568
      3 N          62.8916   89.1872   11.4844 N.ar    1  UNL1       -0.2456
      4 C          63.5061   88.5489   12.6948 C.ar    1  UNL1        0.1319
      5 C          64.4841   89.3176   13.5331 C.ar    1  UNL1        0.0196
      6 C          64.8475   90.7245   13.1610 C.ar    1  UNL1       -0.0015
      7 C          64.2330   91.3627   11.9506 C.ar    1  UNL1        0.0068
      8 C          64.9242   88.4322   14.6611 C.3     1  UNL1        0.1226
      9 N          64.2182   87.1163   14.5199 N.am    1  UNL1       -0.2623
     10 C          63.3418   87.1884   13.3047 C.2     1  UNL1        0.2671
     11 O          62.4565   86.0924   12.7898 O.2     1  UNL1       -0.2682
     12 C          65.8255   91.4933   13.9993 C.ar    1  UNL1        0.0102
     13 C          67.1769   91.8389   13.4477 C.ar    1  UNL1        0.0017
     14 C          68.1549   92.6076   14.2859 C.ar    1  UNL1        0.0114
     15 C          67.7814   93.0308   15.6756 C.ar    1  UNL1        0.0585
     16 CL         68.7594   93.7995   16.5138 Cl      1  UNL1       -0.0822
     17 C          66.4300   92.6852   16.2272 C.ar    1  UNL1        0.0228
     18 C          65.4520   91.9165   15.3890 C.ar    1  UNL1        0.0585
     19 CL         64.1006   91.5709   15.9406 Cl      1  UNL1       -0.0822
     20 C          64.5964   92.7698   11.5785 C.3     1  UNL1        0.0934
     21 N          65.5787   93.0234   10.4736 N.3     1  UNL1       -0.3174
     22 H          66.4975   92.6770   10.7494 H       1  UNL1        0.1192
     23 H          65.6338   94.0254   10.2910 H       1  UNL1        0.1192
     24 C          64.3632   85.9355   15.4335 C.3     1  UNL1        0.1798
     25 C          63.2474   84.9404   15.5558 C.2     1  UNL1        0.2460
     26 O          62.2214   85.0935   16.6392 O.2     1  UNL1       -0.2730
     27 N          63.1577   83.7922   14.5947 N.am    1  UNL1       -0.2781
     28 C          64.1837   83.6391   13.5113 C.3     1  UNL1        0.0939
     29 C          64.0941   82.4910   12.5502 C.3     1  UNL1        0.0306
     30 C          62.9783   81.4959   12.6726 C.3     1  UNL1        0.0797
     31 C          61.9523   81.6490   13.7560 C.3     1  UNL1        0.0306
     32 C          62.0420   82.7972   14.7171 C.3     1  UNL1        0.0939
     33 C          62.8887   80.3478   11.7115 C.2     1  UNL1        0.2190
     34 N          63.2110   80.5564   10.2616 N.am    1  UNL1       -0.3288
     35 O          62.4766   78.9908   12.2005 O.2     1  UNL1       -0.2753
     36 H          63.4815   81.4470    9.9406 H       1  UNL1        0.1449
     37 H          63.1521   79.8028    9.6308 H       1  UNL1        0.1449
@<TRIPOS>BOND
     1     1     2    1
     2     2     3   ar
     3     3     4   ar
     4     4     5   ar
     5     5     6   ar
     6     6    12    1
     7    12    13   ar
     8    13    14   ar
     9    14    15   ar
    10    15    16    1
    11    15    17   ar
    12    17    18   ar
    13    18    19    1
    14     6     7   ar
    15     7    20    1
    16    20    21    1
    17     5     8    1
    18     8     9    1
    19     9    24    1
    20    24    25    1
    21    25    26    2
    22    25    27   am
    23    27    28    1
    24    28    29    1
    25    29    30    1
    26    30    33    1
    27    33    34   am
    28    33    35    2
    29    30    31    1
    30    31    32    1
    31     9    10   am
    32    10    11    2
    33     7     2   ar
    34    32    27    1
    35    10     4    1
    36    18    12   ar
    37    21    22    1
    38    21    23    1
    39    34    36    1
    40    34    37    1
@<TRIPOS>MOLECULE
*****
 37 40 0 0 0
SMALL
GASTEIGER

@<TRIPOS>ATOM
      1 C          66.5521   93.2309   12.9038 C.3     1  UNL1        0.0518
      2 C          65.4486   92.2189   12.8119 C.ar    1  UNL1        0.0568
      3 N          64.6527   92.0901   11.5471 N.ar    1  UNL1       -0.2456
      4 C          63.5492   91.0782   11.4551 C.ar    1  UNL1        0.1319
      5 C          63.2417   90.1952   12.6280 C.ar    1  UNL1        0.0196
      6 C          64.0377   90.3240   13.8928 C.ar    1  UNL1       -0.0015
      7 C          65.1412   91.3359   13.9847 C.ar    1  UNL1        0.0068
      8 C          62.1038   89.2959   12.2455 C.3     1  UNL1        0.1226
      9 N          61.7080   89.6232   10.8362 N.am    1  UNL1       -0.2623
     10 C          62.6013   90.7247   10.3477 C.2     1  UNL1        0.2671
     11 O          62.5548   91.3610    8.9901 O.2     1  UNL1       -0.2682
     12 C          63.7302   89.4409   15.0658 C.ar    1  UNL1        0.0102
     13 C          63.2339   90.0421   16.3473 C.ar    1  UNL1        0.0017
     14 C          62.9264   89.1591   17.5203 C.ar    1  UNL1        0.0114
     15 C          63.1153   87.6751   17.4117 C.ar    1  UNL1        0.0585
     16 CL         62.8079   86.7921   18.5847 Cl      1  UNL1       -0.0822
     17 C          63.6117   87.0739   16.1302 C.ar    1  UNL1        0.0228
     18 C          63.9192   87.9569   14.9572 C.ar    1  UNL1        0.0585
     19 CL         64.4156   87.3557   13.6757 Cl      1  UNL1       -0.0822
     20 C          65.9372   91.4648   15.2497 C.3     1  UNL1        0.0934
     21 N          65.7301   92.6472   16.1490 N.3     1  UNL1       -0.3174
     22 H          66.0321   93.4957   15.6701 H       1  UNL1        0.1192
     23 H          66.2761   92.5255   17.0019 H       1  UNL1        0.1192
     24 C          60.6113   88.9646   10.0528 C.3     1  UNL1        0.1798
     25 C          60.9405   87.8905    9.0588 C.2     1  UNL1        0.2460
     26 O          60.5300   88.0448    7.6244 O.2     1  UNL1       -0.2730
     27 N          61.6802   86.6621    9.4993 N.am    1  UNL1       -0.2781
     28 C          62.0908   86.5079   10.9337 C.3     1  UNL1        0.0939
     29 C          62.8305   85.2796   11.3742 C.3     1  UNL1        0.0306
     30 C          63.1596   84.2055   10.3803 C.3     1  UNL1        0.0797
     31 C          62.7491   84.3598    8.9458 C.3     1  UNL1        0.0306
     32 C          62.0094   85.5881    8.5053 C.3     1  UNL1        0.0939
     33 C          63.8993   82.9772   10.8208 C.2     1  UNL1        0.2190
     34 N          64.9950   83.0864   11.8393 N.am    1  UNL1       -0.3288
     35 O          63.5434   81.6396   10.2426 O.2     1  UNL1       -0.2753
     36 H          65.2286   83.9642   12.2188 H       1  UNL1        0.1449
     37 H          65.4804   82.2802   12.1284 H       1  UNL1        0.1449
@<TRIPOS>BOND
     1     1     2    1
     2     2     3   ar
     3     3     4   ar
     4     4     5   ar
     5     5     6   ar
     6     6    12    1
     7    12    13   ar
     8    13    14   ar
     9    14    15   ar
    10    15    16    1
    11    15    17   ar
    12    17    18   ar
    13    18    19    1
    14     6     7   ar
    15     7    20    1
    16    20    21    1
    17     5     8    1
    18     8     9    1
    19     9    24    1
    20    24    25    1
    21    25    26    2
    22    25    27   am
    23    27    28    1
    24    28    29    1
    25    29    30    1
    26    30    33    1
    27    33    34   am
    28    33    35    2
    29    30    31    1
    30    31    32    1
    31     9    10   am
    32    10    11    2
    33     7     2   ar
    34    32    27    1
    35    10     4    1
    36    18    12   ar
    37    21    22    1
    38    21    23    1
    39    34    36    1
    40    34    37    1
@<TRIPOS>MOLECULE
*****
 37 40 0 0 0
SMALL
GASTEIGER

@<TRIPOS>ATOM
      1 C          59.0183   87.6889    7.1107 C.3     1  UNL1        0.0518
      2 C          59.9050   87.7557    8.3188 C.ar    1  UNL1        0.0568
      3 N          60.0393   89.0411    9.0803 N.ar    1  UNL1       -0.2456
      4 C          60.9260   89.1079   10.2884 C.ar    1  UNL1        0.1319
      5 C          61.6783   87.8895   10.7349 C.ar    1  UNL1        0.0196
      6 C          61.5440   86.6042    9.9734 C.ar    1  UNL1       -0.0015
      7 C          60.6573   86.5374    8.7653 C.ar    1  UNL1        0.0068
      8 C          62.4714   88.2554   11.9544 C.3     1  UNL1        0.1226
      9 N          62.2092   89.7000   12.2615 N.am    1  UNL1       -0.2623
     10 C          61.2541   90.2269   11.2319 C.2     1  UNL1        0.2671
     11 O          60.7208   91.6270   11.1586 O.2     1  UNL1       -0.2682
     12 C          62.2963   85.3856   10.4199 C.ar    1  UNL1        0.0102
     13 C          62.0179   84.7835   11.7652 C.ar    1  UNL1        0.0017
     14 C          62.7701   83.5650   12.2117 C.ar    1  UNL1        0.0114
     15 C          63.8008   82.9487   11.3129 C.ar    1  UNL1        0.0585
     16 CL         64.5530   81.7302   11.7594 Cl      1  UNL1       -0.0822
     17 C          64.0792   83.5509    9.9676 C.ar    1  UNL1        0.0228
     18 C          63.3270   84.7694    9.5210 C.ar    1  UNL1        0.0585
     19 CL         63.6054   85.3715    8.1757 Cl      1  UNL1       -0.0822
     20 C          60.5230   85.2520    8.0037 C.3     1  UNL1        0.0934
     21 N          60.9183   85.1920    6.5580 N.3     1  UNL1       -0.3174
     22 H          60.2922   85.7815    6.0096 H       1  UNL1        0.1192
     23 H          60.8547   84.2290    6.2278 H       1  UNL1        0.1192
     24 C          62.7986   90.4807   13.3986 C.3     1  UNL1        0.1798
     25 C          64.2872   90.6189   13.5214 C.2     1  UNL1        0.2460
     26 O          65.0185   89.9063   14.6202 O.2     1  UNL1       -0.2730
     27 N          65.0445   91.4699   12.5455 N.am    1  UNL1       -0.2781
     28 C          64.3132   92.1826   11.4467 C.3     1  UNL1        0.0939
     29 C          65.0705   93.0335   10.4708 C.3     1  UNL1        0.0306
     30 C          66.5590   93.1717   10.5937 C.3     1  UNL1        0.0797
     31 C          67.2903   92.4590   11.6924 C.3     1  UNL1        0.0306
     32 C          66.5331   91.6081   12.6684 C.3     1  UNL1        0.0939
     33 C          67.3162   94.0227    9.6177 C.2     1  UNL1        0.2190
     34 N          66.5803   94.9835    8.7317 N.am    1  UNL1       -0.3288
     35 O          68.8096   93.9127    9.5278 O.2     1  UNL1       -0.2753
     36 H          65.6003   95.0557    8.7907 H       1  UNL1        0.1449
     37 H          67.0774   95.5420    8.0912 H       1  UNL1        0.1449
@<TRIPOS>BOND
     1     1     2    1
     2     2     3   ar
     3     3     4   ar
     4     4     5   ar
     5     5     6   ar
     6     6    12    1
     7    12    13   ar
     8    13    14   ar
     9    14    15   ar
    10    15    16    1
    11    15    17   ar
    12    17    18   ar
    13    18    19    1
    14     6     7   ar
    15     7    20    1
    16    20    21    1
    17     5     8    1
    18     8     9    1
    19     9    24    1
    20    24    25    1
    21    25    26    2
    22    25    27   am
    23    27    28    1
    24    28    29    1
    25    29    30    1
    26    30    33    1
    27    33    34   am
    28    33    35    2
    29    30    31    1
    30    31    32    1
    31     9    10   am
    32    10    11    2
    33     7     2   ar
    34    32    27    1
    35    10     4    1
    36    18    12   ar
    37    21    22    1
    38    21    23    1
    39    34    36    1
    40    34    37    1
@<TRIPOS>MOLECULE
*****
 37 40 0 0 0
SMALL
GASTEIGER

@<TRIPOS>ATOM
      1 C          63.5862   83.4068   14.5753 C.3     1  UNL1        0.0518
      2 C          63.3708   84.6079   13.7029 C.ar    1  UNL1        0.0568
      3 N          63.5133   85.9866   14.2765 N.ar    1  UNL1       -0.2456
      4 C          63.2979   87.1877   13.4042 C.ar    1  UNL1        0.1319
      5 C          62.9400   87.0102   11.9584 C.ar    1  UNL1        0.0196
      6 C          62.7975   85.6315   11.3848 C.ar    1  UNL1       -0.0015
      7 C          63.0129   84.4304   12.2572 C.ar    1  UNL1        0.0068
      8 C          62.7893   88.3719   11.3475 C.3     1  UNL1        0.1226
      9 N          63.0541   89.3910   12.4158 N.am    1  UNL1       -0.2623
     10 C          63.3684   88.6591   13.6869 C.2     1  UNL1        0.2671
     11 O          63.6958   89.2883   15.0087 O.2     1  UNL1       -0.2682
     12 C          62.4396   85.4539    9.9390 C.ar    1  UNL1        0.0102
     13 C          63.3701   84.7181    9.0210 C.ar    1  UNL1        0.0017
     14 C          63.0122   84.5404    7.5752 C.ar    1  UNL1        0.0114
     15 C          61.7239   85.0986    7.0474 C.ar    1  UNL1        0.0585
     16 CL         61.3661   84.9209    5.6016 Cl      1  UNL1       -0.0822
     17 C          60.7934   85.8344    7.9654 C.ar    1  UNL1        0.0228
     18 C          61.1512   86.0121    9.4112 C.ar    1  UNL1        0.0585
     19 CL         60.2207   86.7479   10.3292 Cl      1  UNL1       -0.0822
     20 C          62.8704   83.0516   11.6836 C.3     1  UNL1        0.0934
     21 N          64.0919   82.2596   11.3226 N.3     1  UNL1       -0.3174
     22 H          64.5774   82.7163   10.5505 H       1  UNL1        0.1192
     23 H          63.8163   81.3185   11.0418 H       1  UNL1        0.1192
     24 C          63.0121   90.8804   12.2434 C.3     1  UNL1        0.1798
     25 C          64.2393   91.6188   11.7975 C.2     1  UNL1        0.2460
     26 O          64.4107   91.9853   10.3531 O.2     1  UNL1       -0.2730
     27 N          65.2951   91.9906   12.7960 N.am    1  UNL1       -0.2781
     28 C          65.1237   91.6241   14.2404 C.3     1  UNL1        0.0939
     29 C          66.1795   91.9959   15.2389 C.3     1  UNL1        0.0306
     30 C          67.4067   92.7343   14.7930 C.3     1  UNL1        0.0797
     31 C          67.5781   93.1008   13.3486 C.3     1  UNL1        0.0306
     32 C          66.5223   92.7290   12.3500 C.3     1  UNL1        0.0939
     33 C          68.4625   93.1061   15.7915 C.2     1  UNL1        0.2190
     34 N          69.2640   92.0349   16.4696 N.am    1  UNL1       -0.3288
     35 O          68.7168   94.5493   16.1119 O.2     1  UNL1       -0.2753
     36 H          69.0971   91.0877   16.2594 H       1  UNL1        0.1449
     37 H          69.9569   92.2790   17.1250 H       1  UNL1        0.1449
@<TRIPOS>BOND
     1     1     2    1
     2     2     3   ar
     3     3     4   ar
     4     4     5   ar
     5     5     6   ar
     6     6    12    1
     7    12    13   ar
     8    13    14   ar
     9    14    15   ar
    10    15    16    1
    11    15    17   ar
    12    17    18   ar
    13    18    19    1
    14     6     7   ar
    15     7    20    1
    16    20    21    1
    17     5     8    1
    18     8     9    1
    19     9    24    1
    20    24    25    1
    21    25    26    2
    22    25    27   am
    23    27    28    1
    24    28    29    1
    25    29    30    1
    26    30    33    1
    27    33    34   am
    28    33    35    2
    29    30    31    1
    30    31    32    1
    31     9    10   am
    32    10    11    2
    33     7     2   ar
    34    32    27    1
    35    10     4    1
    36    18    12   ar
    37    21    22    1
    38    21    23    1
    39    34    36    1
    40    34    37    1
@<TRIPOS>MOLECULE
*****
 37 40 0 0 0
SMALL
GASTEIGER

@<TRIPOS>ATOM
      1 C          63.9907   82.9355   14.9935 C.3     1  UNL1        0.0518
      2 C          63.7170   84.2042   14.2412 C.ar    1  UNL1        0.0568
      3 N          63.8457   85.5289   14.9330 N.ar    1  UNL1       -0.2456
      4 C          63.5720   86.7975   14.1808 C.ar    1  UNL1        0.1319
      5 C          63.1698   86.7414   12.7369 C.ar    1  UNL1        0.0196
      6 C          63.0411   85.4167   12.0451 C.ar    1  UNL1       -0.0015
      7 C          63.3148   84.1480   12.7973 C.ar    1  UNL1        0.0068
      8 C          62.9659   88.1480   12.2575 C.3     1  UNL1        0.1226
      9 N          63.2421   89.0734   13.4052 N.am    1  UNL1       -0.2623
     10 C          63.6167   88.2388   14.5939 C.2     1  UNL1        0.2671
     11 O          63.9734   88.7549   15.9564 O.2     1  UNL1       -0.2682
     12 C          62.6389   85.3605   10.6011 C.ar    1  UNL1        0.0102
     13 C          63.4867   84.6130    9.6149 C.ar    1  UNL1        0.0017
     14 C          63.0845   84.5568    8.1710 C.ar    1  UNL1        0.0114
     15 C          61.8345   85.2480    7.7132 C.ar    1  UNL1        0.0585
     16 CL         61.4323   85.1917    6.2692 Cl      1  UNL1       -0.0822
     17 C          60.9867   85.9954    8.6993 C.ar    1  UNL1        0.0228
     18 C          61.3889   86.0517   10.1433 C.ar    1  UNL1        0.0585
     19 CL         60.5410   86.7991   11.1294 Cl      1  UNL1       -0.0822
     20 C          63.1862   82.8232   12.1055 C.3     1  UNL1        0.0934
     21 N          62.1086   81.8641   12.5164 N.3     1  UNL1       -0.3174
     22 H          62.2841   81.5431   13.4685 H       1  UNL1        0.1192
     23 H          62.1056   81.0645   11.8831 H       1  UNL1        0.1192
     24 C          63.1584   90.5707   13.3703 C.3     1  UNL1        0.1798
     25 C          64.3619   91.3973   13.7139 C.2     1  UNL1        0.2460
     26 O          64.8260   91.4910   15.1372 O.2     1  UNL1       -0.2730
     27 N          65.1015   92.1303   12.6341 N.am    1  UNL1       -0.2781
     28 C          64.6374   92.0367   11.2108 C.3     1  UNL1        0.0939
     29 C          65.3769   92.7696   10.1310 C.3     1  UNL1        0.0306
     30 C          66.5804   93.5963   10.4746 C.3     1  UNL1        0.0797
     31 C          67.0445   93.6899   11.8979 C.3     1  UNL1        0.0306
     32 C          66.3050   92.9570   12.9777 C.3     1  UNL1        0.0939
     33 C          67.3199   94.3292    9.3949 C.2     1  UNL1        0.2190
     34 N          66.5615   95.1178    8.3688 N.am    1  UNL1       -0.3288
     35 O          68.8180   94.2736    9.3411 O.2     1  UNL1       -0.2753
     36 H          65.5783   95.1543    8.4040 H       1  UNL1        0.1449
     37 H          67.0469   95.5988    7.6601 H       1  UNL1        0.1449
@<TRIPOS>BOND
     1     1     2    1
     2     2     3   ar
     3     3     4   ar
     4     4     5   ar
     5     5     6   ar
     6     6    12    1
     7    12    13   ar
     8    13    14   ar
     9    14    15   ar
    10    15    16    1
    11    15    17   ar
    12    17    18   ar
    13    18    19    1
    14     6     7   ar
    15     7    20    1
    16    20    21    1
    17     5     8    1
    18     8     9    1
    19     9    24    1
    20    24    25    1
    21    25    26    2
    22    25    27   am
    23    27    28    1
    24    28    29    1
    25    29    30    1
    26    30    33    1
    27    33    34   am
    28    33    35    2
    29    30    31    1
    30    31    32    1
    31     9    10   am
    32    10    11    2
    33     7     2   ar
    34    32    27    1
    35    10     4    1
    36    18    12   ar
    37    21    22    1
    38    21    23    1
    39    34    36    1
    40    34    37    1
@<TRIPOS>MOLECULE
*****
 37 40 0 0 0
SMALL
GASTEIGER

@<TRIPOS>ATOM
      1 C          64.5063   81.6033   10.3425 C.3     1  UNL1        0.0518
      2 C          63.7979   82.8643   10.7402 C.ar    1  UNL1        0.0568
      3 N          63.0711   83.6738    9.7074 N.ar    1  UNL1       -0.2456
      4 C          62.3626   84.9347   10.1050 C.ar    1  UNL1        0.1319
      5 C          62.3810   85.3862   11.5354 C.ar    1  UNL1        0.0196
      6 C          63.1078   84.5768   12.5681 C.ar    1  UNL1       -0.0015
      7 C          63.8162   83.3157   12.1704 C.ar    1  UNL1        0.0068
      8 C          61.5986   86.6626   11.6287 C.3     1  UNL1        0.1226
      9 N          61.0967   86.9999   10.2560 N.am    1  UNL1       -0.2623
     10 C          61.5689   85.9321    9.3143 C.2     1  UNL1        0.2671
     11 O          61.2953   85.8721    7.8407 O.2     1  UNL1       -0.2682
     12 C          63.1262   85.0282   13.9985 C.ar    1  UNL1        0.0102
     13 C          63.9793   86.1925   14.4065 C.ar    1  UNL1        0.0017
     14 C          63.9978   86.6440   15.8368 C.ar    1  UNL1        0.0114
     15 C          63.1631   85.9311   16.8590 C.ar    1  UNL1        0.0585
     16 CL         63.1816   86.3826   18.2894 Cl      1  UNL1       -0.0822
     17 C          62.3100   84.7668   16.4511 C.ar    1  UNL1        0.0228
     18 C          62.2916   84.3153   15.0207 C.ar    1  UNL1        0.0585
     19 CL         61.4385   83.1509   14.6127 Cl      1  UNL1       -0.0822
     20 C          64.5431   82.5062   13.2032 C.3     1  UNL1        0.0934
     21 N          63.9068   81.2737   13.7743 N.3     1  UNL1       -0.3174
     22 H          63.0811   81.5357   14.3128 H       1  UNL1        0.1192
     23 H          64.5729   80.7981   14.3829 H       1  UNL1        0.1192
     24 C          60.2681   88.1953    9.8893 C.3     1  UNL1        0.1798
     25 C          60.9341   89.4520    9.4127 C.2     1  UNL1        0.2460
     26 O          60.5277   90.0672    8.1065 O.2     1  UNL1       -0.2730
     27 N          62.0067   90.0934   10.2422 N.am    1  UNL1       -0.2781
     28 C          62.4132   89.4782   11.5485 C.3     1  UNL1        0.0939
     29 C          63.4858   90.1196   12.3781 C.3     1  UNL1        0.0306
     30 C          64.1518   91.3762   11.9014 C.3     1  UNL1        0.0797
     31 C          63.7453   91.9914   10.5952 C.3     1  UNL1        0.0306
     32 C          62.6727   91.3500    9.7656 C.3     1  UNL1        0.0939
     33 C          65.2244   92.0176   12.7310 C.2     1  UNL1        0.2190
     34 N          66.4383   92.5985   12.0686 N.am    1  UNL1       -0.3288
     35 O          65.0830   92.0780   14.2232 O.2     1  UNL1       -0.2753
     36 H          66.5311   92.5588   11.0893 H       1  UNL1        0.1449
     37 H          67.1422   93.0194   12.6132 H       1  UNL1        0.1449
@<TRIPOS>BOND
     1     1     2    1
     2     2     3   ar
     3     3     4   ar
     4     4     5   ar
     5     5     6   ar
     6     6    12    1
     7    12    13   ar
     8    13    14   ar
     9    14    15   ar
    10    15    16    1
    11    15    17   ar
    12    17    18   ar
    13    18    19    1
    14     6     7   ar
    15     7    20    1
    16    20    21    1
    17     5     8    1
    18     8     9    1
    19     9    24    1
    20    24    25    1
    21    25    26    2
    22    25    27   am
    23    27    28    1
    24    28    29    1
    25    29    30    1
    26    30    33    1
    27    33    34   am
    28    33    35    2
    29    30    31    1
    30    31    32    1
    31     9    10   am
    32    10    11    2
    33     7     2   ar
    34    32    27    1
    35    10     4    1
    36    18    12   ar
    37    21    22    1
    38    21    23    1
    39    34    36    1
    40    34    37    1
@<TRIPOS>MOLECULE
*****
 37 40 0 0 0
SMALL
GASTEIGER

@<TRIPOS>ATOM
      1 C          63.1484   91.9057    9.7388 C.3     1  UNL1        0.0518
      2 C          63.6716   91.2269   10.9699 C.ar    1  UNL1        0.0568
      3 N          63.1846   89.8559   11.3347 N.ar    1  UNL1       -0.2456
      4 C          63.7078   89.1771   12.5657 C.ar    1  UNL1        0.1319
      5 C          64.7180   89.8693   13.4320 C.ar    1  UNL1        0.0196
      6 C          65.2049   91.2403   13.0672 C.ar    1  UNL1       -0.0015
      7 C          64.6817   91.9191   11.8361 C.ar    1  UNL1        0.0068
      8 C          65.0500   88.9577   14.5760 C.3     1  UNL1        0.1226
      9 N          64.2451   87.7020   14.4167 N.am    1  UNL1       -0.2623
     10 C          63.4156   87.8376   13.1743 C.2     1  UNL1        0.2671
     11 O          62.4613   86.8135   12.6352 O.2     1  UNL1       -0.2682
     12 C          66.2151   91.9327   13.9335 C.ar    1  UNL1        0.0102
     13 C          65.7995   92.5134   15.2526 C.ar    1  UNL1        0.0017
     14 C          66.8096   93.2057   16.1189 C.ar    1  UNL1        0.0114
     15 C          68.2352   93.3173   15.6660 C.ar    1  UNL1        0.0585
     16 CL         69.2453   94.0096   16.5323 Cl      1  UNL1       -0.0822
     17 C          68.6508   92.7365   14.3469 C.ar    1  UNL1        0.0228
     18 C          67.6407   92.0442   13.4806 C.ar    1  UNL1        0.0585
     19 CL         68.0563   91.4634   12.1615 Cl      1  UNL1       -0.0822
     20 C          65.1687   93.2903   11.4713 C.3     1  UNL1        0.0934
     21 N          65.9128   93.5047   10.1867 N.3     1  UNL1       -0.3174
     22 H          66.8047   93.0111   10.2239 H       1  UNL1        0.1192
     23 H          66.0814   94.5019   10.0538 H       1  UNL1        0.1192
     24 C          64.2660   86.5185   15.3380 C.3     1  UNL1        0.1798
     25 C          64.8708   85.2238   14.8822 C.2     1  UNL1        0.2460
     26 O          66.3529   85.1199   14.6759 O.2     1  UNL1       -0.2730
     27 N          63.9936   84.0328   14.6327 N.am    1  UNL1       -0.2781
     28 C          62.5115   84.1367   14.8390 C.3     1  UNL1        0.0939
     29 C          61.6342   82.9459   14.5894 C.3     1  UNL1        0.0306
     30 C          62.2391   81.6512   14.1336 C.3     1  UNL1        0.0797
     31 C          63.7212   81.5473   13.9273 C.3     1  UNL1        0.0306
     32 C          64.5985   82.7381   14.1768 C.3     1  UNL1        0.0939
     33 C          61.3619   80.4603   13.8841 C.2     1  UNL1        0.2190
     34 N          61.9021   79.2725   13.1445 N.am    1  UNL1       -0.3288
     35 O          59.9441   80.4573   14.3743 O.2     1  UNL1       -0.2753
     36 H          62.8326   79.2745   12.8228 H       1  UNL1        0.1449
     37 H          61.3263   78.4909   12.9807 H       1  UNL1        0.1449
@<TRIPOS>BOND
     1     1     2    1
     2     2     3   ar
     3     3     4   ar
     4     4     5   ar
     5     5     6   ar
     6     6    12    1
     7    12    13   ar
     8    13    14   ar
     9    14    15   ar
    10    15    16    1
    11    15    17   ar
    12    17    18   ar
    13    18    19    1
    14     6     7   ar
    15     7    20    1
    16    20    21    1
    17     5     8    1
    18     8     9    1
    19     9    24    1
    20    24    25    1
    21    25    26    2
    22    25    27   am
    23    27    28    1
    24    28    29    1
    25    29    30    1
    26    30    33    1
    27    33    34   am
    28    33    35    2
    29    30    31    1
    30    31    32    1
    31     9    10   am
    32    10    11    2
    33     7     2   ar
    34    32    27    1
    35    10     4    1
    36    18    12   ar
    37    21    22    1
    38    21    23    1
    39    34    36    1
    40    34    37    1
@<TRIPOS>MOLECULE
*****
 37 40 0 0 0
SMALL
GASTEIGER

@<TRIPOS>ATOM
      1 C          58.7094   87.6772    7.1203 C.3     1  UNL1        0.0518
      2 C          59.7292   87.7575    8.2174 C.ar    1  UNL1        0.0568
      3 N          60.0003   89.0681    8.8948 N.ar    1  UNL1       -0.2456
      4 C          61.0201   89.1485    9.9919 C.ar    1  UNL1        0.1319
      5 C          61.7688   87.9183   10.4115 C.ar    1  UNL1        0.0196
      6 C          61.4978   86.6078    9.7341 C.ar    1  UNL1       -0.0015
      7 C          60.4779   86.5274    8.6370 C.ar    1  UNL1        0.0068
      8 C          62.7090   88.3019   11.5155 C.3     1  UNL1        0.1226
      9 N          62.5413   89.7692   11.7782 N.am    1  UNL1       -0.2623
     10 C          61.4975   90.2924   10.8366 C.2     1  UNL1        0.2671
     11 O          61.0157   91.7105   10.7541 O.2     1  UNL1       -0.2682
     12 C          62.2465   85.3775   10.1536 C.ar    1  UNL1        0.0102
     13 C          61.9625   84.7437   11.4831 C.ar    1  UNL1        0.0017
     14 C          62.7112   83.5135   11.9028 C.ar    1  UNL1        0.0114
     15 C          63.7438   82.9172   10.9929 C.ar    1  UNL1        0.0585
     16 CL         64.4925   81.6870   11.4125 Cl      1  UNL1       -0.0822
     17 C          64.0279   83.5510    9.6634 C.ar    1  UNL1        0.0228
     18 C          63.2792   84.7813    9.2437 C.ar    1  UNL1        0.0585
     19 CL         63.5633   85.4151    7.9143 Cl      1  UNL1       -0.0822
     20 C          60.2069   85.2168    7.9595 C.3     1  UNL1        0.0934
     21 N          60.7456   84.9581    6.5837 N.3     1  UNL1       -0.3174
     22 H          60.2983   85.5895    5.9191 H       1  UNL1        0.1192
     23 H          60.5517   83.9924    6.3186 H       1  UNL1        0.1192
     24 C          63.2866   90.5723   12.8027 C.3     1  UNL1        0.1798
     25 C          64.2868   91.6015   12.3664 C.2     1  UNL1        0.2460
     26 O          64.1815   92.2192   11.0036 O.2     1  UNL1       -0.2730
     27 N          65.3924   92.0130   13.2929 N.am    1  UNL1       -0.2781
     28 C          65.4977   91.3953   14.6558 C.3     1  UNL1        0.0939
     29 C          66.6033   91.8068   15.5823 C.3     1  UNL1        0.0306
     30 C          67.6034   92.8359   15.1460 C.3     1  UNL1        0.0797
     31 C          67.4981   93.4536   13.7831 C.3     1  UNL1        0.0306
     32 C          66.3926   93.0422   12.8566 C.3     1  UNL1        0.0939
     33 C          68.7090   93.2474   16.0725 C.2     1  UNL1        0.2190
     34 N          69.0015   94.7021   16.2917 N.am    1  UNL1       -0.3288
     35 O          69.5221   92.2040   16.7799 O.2     1  UNL1       -0.2753
     36 H          68.4678   95.3869   15.8275 H       1  UNL1        0.1449
     37 H          69.7271   94.9721   16.8999 H       1  UNL1        0.1449
@<TRIPOS>BOND
     1     1     2    1
     2     2     3   ar
     3     3     4   ar
     4     4     5   ar
     5     5     6   ar
     6     6    12    1
     7    12    13   ar
     8    13    14   ar
     9    14    15   ar
    10    15    16    1
    11    15    17   ar
    12    17    18   ar
    13    18    19    1
    14     6     7   ar
    15     7    20    1
    16    20    21    1
    17     5     8    1
    18     8     9    1
    19     9    24    1
    20    24    25    1
    21    25    26    2
    22    25    27   am
    23    27    28    1
    24    28    29    1
    25    29    30    1
    26    30    33    1
    27    33    34   am
    28    33    35    2
    29    30    31    1
    30    31    32    1
    31     9    10   am
    32    10    11    2
    33     7     2   ar
    34    32    27    1
    35    10     4    1
    36    18    12   ar
    37    21    22    1
    38    21    23    1
    39    34    36    1
    40    34    37    1
@<TRIPOS>MOLECULE
*****
 37 40 0 0 0
SMALL
GASTEIGER

@<TRIPOS>ATOM
      1 C          55.5912   94.3327   -5.1463 C.3     1  UNL1        0.0518
      2 C          57.0237   94.3199   -4.7013 C.ar    1  UNL1        0.0568
      3 N          58.1196   94.5712   -5.6942 N.ar    1  UNL1       -0.2456
      4 C          59.5520   94.5585   -5.2493 C.ar    1  UNL1        0.1319
      5 C          59.8885   94.2944   -3.8116 C.ar    1  UNL1        0.0196
      6 C          58.7926   94.0431   -2.8187 C.ar    1  UNL1       -0.0015
      7 C          57.3601   94.0559   -3.2637 C.ar    1  UNL1        0.0068
      8 C          61.3808   94.3438   -3.6681 C.3     1  UNL1        0.1226
      9 N          61.9666   94.6384   -5.0172 N.am    1  UNL1       -0.2623
     10 C          60.8364   94.7711   -5.9944 C.2     1  UNL1        0.2671
     11 O          60.9675   95.0648   -7.4595 O.2     1  UNL1       -0.2682
     12 C          59.1290   93.7790   -1.3809 C.ar    1  UNL1        0.0102
     13 C          59.4223   92.3808   -0.9240 C.ar    1  UNL1        0.0017
     14 C          59.7587   92.1166    0.5137 C.ar    1  UNL1        0.0114
     15 C          59.8019   93.2508    1.4944 C.ar    1  UNL1        0.0585
     16 CL         60.1383   92.9866    2.9321 Cl      1  UNL1       -0.0822
     17 C          59.5086   94.6490    1.0375 C.ar    1  UNL1        0.0228
     18 C          59.1722   94.9132   -0.4003 C.ar    1  UNL1        0.0585
     19 CL         58.8789   96.3115   -0.8572 Cl      1  UNL1       -0.0822
     20 C          56.2641   93.8046   -2.2708 C.3     1  UNL1        0.0934
     21 N          55.8714   92.3983   -1.9271 N.3     1  UNL1       -0.3174
     22 H          55.4650   91.9486   -2.7474 H       1  UNL1        0.1192
     23 H          55.1859   92.4116   -1.1720 H       1  UNL1        0.1192
     24 C          63.4264   94.7761   -5.3336 C.3     1  UNL1        0.1798
     25 C          64.2949   95.6660   -4.4947 C.2     1  UNL1        0.2460
     26 O          64.9927   96.8378   -5.1191 O.2     1  UNL1       -0.2730
     27 N          64.4657   95.3841   -3.0313 N.am    1  UNL1       -0.2781
     28 C          63.7679   94.2123   -2.4069 C.3     1  UNL1        0.0939
     29 C          63.9387   93.9303   -0.9435 C.3     1  UNL1        0.0306
     30 C          64.8072   94.8203   -0.1047 C.3     1  UNL1        0.0797
     31 C          65.5050   95.9921   -0.7292 C.3     1  UNL1        0.0306
     32 C          65.3343   96.2740   -2.1925 C.3     1  UNL1        0.0939
     33 C          64.9780   94.5383    1.3586 C.2     1  UNL1        0.2190
     34 N          65.0094   93.1218    1.8509 N.am    1  UNL1       -0.3288
     35 O          65.1173   95.6730    2.3298 O.2     1  UNL1       -0.2753
     36 H          64.9180   92.3771    1.2135 H       1  UNL1        0.1449
     37 H          65.1215   92.9368    2.8113 H       1  UNL1        0.1449
@<TRIPOS>BOND
     1     1     2    1
     2     2     3   ar
     3     3     4   ar
     4     4     5   ar
     5     5     6   ar
     6     6    12    1
     7    12    13   ar
     8    13    14   ar
     9    14    15   ar
    10    15    16    1
    11    15    17   ar
    12    17    18   ar
    13    18    19    1
    14     6     7   ar
    15     7    20    1
    16    20    21    1
    17     5     8    1
    18     8     9    1
    19     9    24    1
    20    24    25    1
    21    25    26    2
    22    25    27   am
    23    27    28    1
    24    28    29    1
    25    29    30    1
    26    30    33    1
    27    33    34   am
    28    33    35    2
    29    30    31    1
    30    31    32    1
    31     9    10   am
    32    10    11    2
    33     7     2   ar
    34    32    27    1
    35    10     4    1
    36    18    12   ar
    37    21    22    1
    38    21    23    1
    39    34    36    1
    40    34    37    1
