@<TRIPOS>MOLECULE
*****
 41 46 0 0 0
SMALL
GASTEIGER

@<TRIPOS>ATOM
      1 C          62.7914   82.1156   12.4374 C.ar    1  UNL1        0.0560
      2 C          62.7491   81.9161   10.9514 C.ar    1  UNL1        0.0046
      3 C          62.9272   83.0877   10.0319 C.ar    1  UNL1        0.0016
      4 C          63.1475   84.4590   10.5985 C.ar    1  UNL1        0.0172
      5 C          63.1898   84.6586   12.0845 C.ar    1  UNL1        0.0618
      6 C          63.0118   83.4869   13.0040 C.ar    1  UNL1        0.0394
      7 C          63.1010   83.9874   14.4152 C.ar    1  UNL1        0.1030
      8 N          63.0000   83.2860   15.7372 N.ar    1  UNL1       -0.2224
      9 C          63.1322   84.0655   17.0119 C.ar    1  UNL1        0.2001
     10 N          63.3654   85.5465   16.9646 N.ar    1  UNL1       -0.2075
     11 C          63.4663   86.2480   15.6426 C.ar    1  UNL1        0.1509
     12 C          63.3341   85.4685   14.3679 C.ar    1  UNL1        0.1101
     13 N          63.3890   85.8832   12.9275 N.ar    1  UNL1       -0.3195
     14 N          63.6995   87.7290   15.5954 N.pl3   1  UNL1       -0.2892
     15 C          63.0106   88.6284   16.5783 C.3     1  UNL1        0.1095
     16 C          63.2438   90.1095   16.5310 C.3     1  UNL1        0.0939
     17 N          64.1659   90.6910   15.5007 N.3     1  UNL1       -0.2695
     18 C          64.8549   89.7915   14.5177 C.3     1  UNL1        0.0939
     19 C          64.6217   88.3106   14.5650 C.3     1  UNL1        0.1095
     20 C          64.3991   92.1720   15.4534 C.3     1  UNL1        0.0769
     21 C          65.7802   92.7066   15.2150 C.3     1  UNL1        0.0437
     22 C          66.4460   92.4986   13.8871 C.ar    1  UNL1       -0.0184
     23 C          67.8250   91.9120   13.8233 C.ar    1  UNL1       -0.0018
     24 C          68.4909   91.7040   12.4953 C.ar    1  UNL1        0.0316
     25 C          67.7777   92.0826   11.2312 C.ar    1  UNL1        0.1674
     26 F          68.4436   91.8746    9.9033 F       1  UNL1       -0.2018
     27 C          66.3986   92.6692   11.2950 C.ar    1  UNL1        0.1671
     28 F          65.6854   93.0478   10.0309 F       1  UNL1       -0.2018
     29 C          65.7328   92.8772   12.6229 C.ar    1  UNL1        0.0277
     30 N          63.7647   80.4615   14.1885 N.am    1  UNL1       -0.3253
     31 C          62.6134   80.9440   13.3569 C.2     1  UNL1        0.2428
     32 O          61.2840   80.2548   13.4448 O.2     1  UNL1       -0.2704
     33 H          63.6479   79.6924   14.7920 H       1  UNL1        0.1453
     34 H          64.6372   80.9138   14.1309 H       1  UNL1        0.1453
     35 C          63.6052   87.2778   12.4192 C.3     1  UNL1        0.1329
     36 C          62.5440   87.9504   11.5998 C.ar    1  UNL1        0.0035
     37 C          61.2738   87.2222   11.2741 C.ar    1  UNL1        0.0183
     38 C          60.2126   87.8949   10.4547 C.ar    1  UNL1        0.0986
     39 N          60.4216   89.2958    9.9610 N.ar    1  UNL1       -0.2423
     40 C          61.6919   90.0241   10.2867 C.ar    1  UNL1        0.0986
     41 C          62.7531   89.3514   11.1061 C.ar    1  UNL1        0.0183
@<TRIPOS>BOND
     1    30    31   am
     2    31    32    2
     3    31     1    1
     4     1     2   ar
     5     2     3   ar
     6     3     4   ar
     7     4     5   ar
     8     5     6   ar
     9     6     7   ar
    10     7     8   ar
    11     8     9   ar
    12     9    10   ar
    13    10    11   ar
    14    11    14    1
    15    14    15    1
    16    15    16    1
    17    16    17    1
    18    17    20    1
    19    20    21    1
    20    21    22    1
    21    22    23   ar
    22    23    24   ar
    23    24    25   ar
    24    25    26    1
    25    25    27   ar
    26    27    28    1
    27    27    29   ar
    28    17    18    1
    29    18    19    1
    30    11    12   ar
    31    12    13   ar
    32    13    35    1
    33    35    36    1
    34    36    37   ar
    35    37    38   ar
    36    38    39   ar
    37    39    40   ar
    38    40    41   ar
    39     6     1   ar
    40    12     7   ar
    41    41    36   ar
    42    13     5   ar
    43    19    14    1
    44    29    22   ar
    45    30    33    1
    46    30    34    1
@<TRIPOS>MOLECULE
*****
 41 46 0 0 0
SMALL
GASTEIGER

@<TRIPOS>ATOM
      1 C          63.1159   81.3048   12.7319 C.ar    1  UNL1        0.0560
      2 C          63.0122   80.4799   11.4835 C.ar    1  UNL1        0.0046
      3 C          62.9748   81.1506   10.1423 C.ar    1  UNL1        0.0016
      4 C          63.0411   82.6462   10.0496 C.ar    1  UNL1        0.0172
      5 C          63.1447   83.4711   11.2980 C.ar    1  UNL1        0.0618
      6 C          63.1821   82.8004   12.6392 C.ar    1  UNL1        0.0394
      7 C          63.2870   83.8675   13.6883 C.ar    1  UNL1        0.1030
      8 N          63.3611   83.7997   15.1849 N.ar    1  UNL1       -0.2224
      9 C          63.4625   85.0621   15.9887 C.ar    1  UNL1        0.2001
     10 N          63.4899   86.3923   15.2959 N.ar    1  UNL1       -0.2075
     11 C          63.4159   86.4600   13.7993 C.ar    1  UNL1        0.1509
     12 C          63.3144   85.1976   12.9954 C.ar    1  UNL1        0.1101
     13 N          63.2265   84.9526   11.5182 N.ar    1  UNL1       -0.3195
     14 N          63.4433   87.7901   13.1065 N.pl3   1  UNL1       -0.2892
     15 C          62.6914   87.9829   11.8230 C.3     1  UNL1        0.1095
     16 C          62.7188   89.3131   11.1302 C.3     1  UNL1        0.0939
     17 N          63.4982   90.4505   11.7210 N.3     1  UNL1       -0.2695
     18 C          64.2501   90.2577   13.0045 C.3     1  UNL1        0.0939
     19 C          64.2227   88.9276   13.6972 C.3     1  UNL1        0.1095
     20 C          63.5256   91.7806   11.0281 C.3     1  UNL1        0.0769
     21 C          64.8378   92.4372   10.7169 C.3     1  UNL1        0.0437
     22 C          65.9464   92.4141   11.7271 C.ar    1  UNL1       -0.0184
     23 C          67.2869   91.8523   11.3568 C.ar    1  UNL1       -0.0018
     24 C          68.3955   91.8291   12.3671 C.ar    1  UNL1        0.0316
     25 C          68.1634   92.3678   13.7476 C.ar    1  UNL1        0.1674
     26 F          69.2720   92.3446   14.7578 F       1  UNL1       -0.2018
     27 C          66.8228   92.9296   14.1180 C.ar    1  UNL1        0.1671
     28 F          66.5908   93.4682   15.4985 F       1  UNL1       -0.2018
     29 C          65.7144   92.9527   13.1078 C.ar    1  UNL1        0.0277
     30 N          61.9322   80.6308   14.9443 N.am    1  UNL1       -0.3253
     31 C          63.1533   80.6341   14.0731 C.2     1  UNL1        0.2428
     32 O          64.4117   79.9668   14.5432 O.2     1  UNL1       -0.2704
     33 H          61.9568   80.1906   15.8246 H       1  UNL1        0.1453
     34 H          61.1062   81.0687   14.6358 H       1  UNL1        0.1453
     35 C          63.2212   86.0045   10.4488 C.3     1  UNL1        0.1329
     36 C          62.3582   85.8346    9.2339 C.ar    1  UNL1        0.0035
     37 C          60.9381   86.3176    9.2491 C.ar    1  UNL1        0.0183
     38 C          60.0751   86.1477    8.0341 C.ar    1  UNL1        0.0986
     39 N          60.6320   85.4948    6.8038 N.ar    1  UNL1       -0.2423
     40 C          62.0521   85.0118    6.7885 C.ar    1  UNL1        0.0986
     41 C          62.9151   85.1817    8.0036 C.ar    1  UNL1        0.0183
@<TRIPOS>BOND
     1    30    31   am
     2    31    32    2
     3    31     1    1
     4     1     2   ar
     5     2     3   ar
     6     3     4   ar
     7     4     5   ar
     8     5     6   ar
     9     6     7   ar
    10     7     8   ar
    11     8     9   ar
    12     9    10   ar
    13    10    11   ar
    14    11    14    1
    15    14    15    1
    16    15    16    1
    17    16    17    1
    18    17    20    1
    19    20    21    1
    20    21    22    1
    21    22    23   ar
    22    23    24   ar
    23    24    25   ar
    24    25    26    1
    25    25    27   ar
    26    27    28    1
    27    27    29   ar
    28    17    18    1
    29    18    19    1
    30    11    12   ar
    31    12    13   ar
    32    13    35    1
    33    35    36    1
    34    36    37   ar
    35    37    38   ar
    36    38    39   ar
    37    39    40   ar
    38    40    41   ar
    39     6     1   ar
    40    12     7   ar
    41    41    36   ar
    42    13     5   ar
    43    19    14    1
    44    29    22   ar
    45    30    33    1
    46    30    34    1
@<TRIPOS>MOLECULE
*****
 41 46 0 0 0
SMALL
GASTEIGER

@<TRIPOS>ATOM
      1 C          65.7505   93.9439   11.9504 C.ar    1  UNL1        0.0560
      2 C          65.6478   94.0282   10.4563 C.ar    1  UNL1        0.0046
      3 C          65.0750   92.8811    9.6779 C.ar    1  UNL1        0.0016
      4 C          64.6048   91.6495   10.3936 C.ar    1  UNL1        0.0172
      5 C          64.7075   91.5652   11.8877 C.ar    1  UNL1        0.0618
      6 C          65.2803   92.7123   12.6660 C.ar    1  UNL1        0.0394
      7 C          65.2555   92.3442   14.1200 C.ar    1  UNL1        0.1030
      8 N          65.6925   93.0832   15.3500 N.ar    1  UNL1       -0.2224
      9 C          65.5414   92.4475   16.7002 C.ar    1  UNL1        0.2001
     10 N          64.9533   91.0729   16.8204 N.ar    1  UNL1       -0.2075
     11 C          64.5163   90.3339   15.5904 C.ar    1  UNL1        0.1509
     12 C          64.6674   90.9696   14.2402 C.ar    1  UNL1        0.1101
     13 N          64.3287   90.4881   12.8605 N.ar    1  UNL1       -0.3195
     14 N          63.9282   88.9593   15.7106 N.pl3   1  UNL1       -0.2892
     15 C          62.7989   88.7075   16.6652 C.3     1  UNL1        0.1095
     16 C          62.2108   87.3328   16.7854 C.3     1  UNL1        0.0939
     17 N          62.7520   86.2099   15.9510 N.3     1  UNL1       -0.2695
     18 C          63.8813   86.4617   14.9963 C.3     1  UNL1        0.0939
     19 C          64.4693   87.8363   14.8762 C.3     1  UNL1        0.1095
     20 C          62.1639   84.8353   16.0712 C.3     1  UNL1        0.0769
     21 C          63.0231   83.6286   15.8351 C.3     1  UNL1        0.0437
     22 C          63.0219   82.9579   14.4934 C.ar    1  UNL1       -0.0184
     23 C          62.0807   81.8216   14.2237 C.ar    1  UNL1       -0.0018
     24 C          62.0796   81.1510   12.8819 C.ar    1  UNL1        0.0316
     25 C          63.0197   81.6167   11.8099 C.ar    1  UNL1        0.1674
     26 F          63.0186   80.9460   10.4682 F       1  UNL1       -0.2018
     27 C          63.9610   82.7531   12.0796 C.ar    1  UNL1        0.1671
     28 F          64.9011   83.2188   11.0075 F       1  UNL1       -0.2018
     29 C          63.9621   83.4236   13.4213 C.ar    1  UNL1        0.0277
     30 N          67.1839   94.8278   13.9287 N.am    1  UNL1       -0.3253
     31 C          66.3233   95.0910   12.7288 C.2     1  UNL1        0.2428
     32 O          66.0355   96.5015   12.3072 O.2     1  UNL1       -0.2704
     33 H          67.5599   95.5807   14.4396 H       1  UNL1        0.1453
     34 H          67.3729   93.9020   14.2054 H       1  UNL1        0.1453
     35 C          63.7184   89.1623   12.5145 C.3     1  UNL1        0.1329
     36 C          62.5202   89.1003   11.6142 C.ar    1  UNL1        0.0035
     37 C          61.3928   90.0724   11.7981 C.ar    1  UNL1        0.0183
     38 C          60.1946   90.0103   10.8978 C.ar    1  UNL1        0.0986
     39 N          60.1238   88.9762    9.8136 N.ar    1  UNL1       -0.2423
     40 C          61.2513   88.0040    9.6297 C.ar    1  UNL1        0.0986
     41 C          62.4494   88.0661   10.5300 C.ar    1  UNL1        0.0183
@<TRIPOS>BOND
     1    30    31   am
     2    31    32    2
     3    31     1    1
     4     1     2   ar
     5     2     3   ar
     6     3     4   ar
     7     4     5   ar
     8     5     6   ar
     9     6     7   ar
    10     7     8   ar
    11     8     9   ar
    12     9    10   ar
    13    10    11   ar
    14    11    14    1
    15    14    15    1
    16    15    16    1
    17    16    17    1
    18    17    20    1
    19    20    21    1
    20    21    22    1
    21    22    23   ar
    22    23    24   ar
    23    24    25   ar
    24    25    26    1
    25    25    27   ar
    26    27    28    1
    27    27    29   ar
    28    17    18    1
    29    18    19    1
    30    11    12   ar
    31    12    13   ar
    32    13    35    1
    33    35    36    1
    34    36    37   ar
    35    37    38   ar
    36    38    39   ar
    37    39    40   ar
    38    40    41   ar
    39     6     1   ar
    40    12     7   ar
    41    41    36   ar
    42    13     5   ar
    43    19    14    1
    44    29    22   ar
    45    30    33    1
    46    30    34    1
@<TRIPOS>MOLECULE
*****
 41 46 0 0 0
SMALL
GASTEIGER

@<TRIPOS>ATOM
      1 C          62.9633   83.4601   10.4043 C.ar    1  UNL1        0.0560
      2 C          62.6293   83.8074    8.9838 C.ar    1  UNL1        0.0046
      3 C          62.4638   85.2430    8.5817 C.ar    1  UNL1        0.0016
      4 C          62.6323   86.3313    9.6001 C.ar    1  UNL1        0.0172
      5 C          62.9663   85.9840   11.0205 C.ar    1  UNL1        0.0618
      6 C          63.1318   84.5484   11.4226 C.ar    1  UNL1        0.0394
      7 C          63.4589   84.5117   12.8861 C.ar    1  UNL1        0.1030
      8 N          63.7281   83.3743   13.8261 N.ar    1  UNL1       -0.2224
      9 C          64.0339   83.6498   15.2686 C.ar    1  UNL1        0.2001
     10 N          64.0706   85.0626   15.7710 N.ar    1  UNL1       -0.2075
     11 C          63.8013   86.2001   14.8309 C.ar    1  UNL1        0.1509
     12 C          63.4955   85.9246   13.3885 C.ar    1  UNL1        0.1101
     13 N          63.1911   86.8345   12.2355 N.ar    1  UNL1       -0.3195
     14 N          63.8380   87.6130   15.3333 N.pl3   1  UNL1       -0.2892
     15 C          64.6046   88.6578   14.5782 C.3     1  UNL1        0.1095
     16 C          64.6412   90.0708   15.0806 C.3     1  UNL1        0.0939
     17 N          63.9111   90.4387   16.3382 N.3     1  UNL1       -0.2695
     18 C          63.1444   89.3938   17.0934 C.3     1  UNL1        0.0939
     19 C          63.1079   87.9810   16.5910 C.3     1  UNL1        0.1095
     20 C          63.9478   91.8516   16.8406 C.3     1  UNL1        0.0769
     21 C          64.6159   92.9199   16.0268 C.3     1  UNL1        0.0437
     22 C          65.9899   92.6900   15.4706 C.ar    1  UNL1       -0.0184
     23 C          66.1831   92.5284   13.9920 C.ar    1  UNL1       -0.0018
     24 C          67.5571   92.2985   13.4358 C.ar    1  UNL1        0.0316
     25 C          68.7379   92.2302   14.3584 C.ar    1  UNL1        0.1674
     26 F          70.1119   92.0003   13.8022 F       1  UNL1       -0.2018
     27 C          68.5447   92.3919   15.8371 C.ar    1  UNL1        0.1671
     28 F          69.7255   92.3236   16.7596 F       1  UNL1       -0.2018
     29 C          67.1708   92.6218   16.3932 C.ar    1  UNL1        0.0277
     30 N          62.3852   81.4875   11.9932 N.am    1  UNL1       -0.3253
     31 C          63.1289   82.0245   10.8064 C.2     1  UNL1        0.2428
     32 O          64.0380   81.1259   10.0217 O.2     1  UNL1       -0.2704
     33 H          62.4938   80.5453   12.2571 H       1  UNL1        0.1453
     34 H          61.7884   82.0773   12.5082 H       1  UNL1        0.1453
     35 C          63.1233   88.3321   12.2882 C.3     1  UNL1        0.1329
     36 C          61.9935   89.0558   11.6176 C.ar    1  UNL1        0.0035
     37 C          60.7245   89.3265   12.3701 C.ar    1  UNL1        0.0183
     38 C          59.5947   90.0503   11.6994 C.ar    1  UNL1        0.0986
     39 N          59.7339   90.5034   10.2763 N.ar    1  UNL1       -0.2423
     40 C          61.0030   90.2327    9.5238 C.ar    1  UNL1        0.0986
     41 C          62.1328   89.5089   10.1944 C.ar    1  UNL1        0.0183
@<TRIPOS>BOND
     1    30    31   am
     2    31    32    2
     3    31     1    1
     4     1     2   ar
     5     2     3   ar
     6     3     4   ar
     7     4     5   ar
     8     5     6   ar
     9     6     7   ar
    10     7     8   ar
    11     8     9   ar
    12     9    10   ar
    13    10    11   ar
    14    11    14    1
    15    14    15    1
    16    15    16    1
    17    16    17    1
    18    17    20    1
    19    20    21    1
    20    21    22    1
    21    22    23   ar
    22    23    24   ar
    23    24    25   ar
    24    25    26    1
    25    25    27   ar
    26    27    28    1
    27    27    29   ar
    28    17    18    1
    29    18    19    1
    30    11    12   ar
    31    12    13   ar
    32    13    35    1
    33    35    36    1
    34    36    37   ar
    35    37    38   ar
    36    38    39   ar
    37    39    40   ar
    38    40    41   ar
    39     6     1   ar
    40    12     7   ar
    41    41    36   ar
    42    13     5   ar
    43    19    14    1
    44    29    22   ar
    45    30    33    1
    46    30    34    1
@<TRIPOS>MOLECULE
*****
 41 46 0 0 0
SMALL
GASTEIGER

@<TRIPOS>ATOM
      1 C          64.7042   95.2350   -5.0786 C.ar    1  UNL1        0.0560
      2 C          65.7575   95.6411   -4.0909 C.ar    1  UNL1        0.0046
      3 C          65.3616   96.1076   -2.7214 C.ar    1  UNL1        0.0016
      4 C          63.9123   96.1679   -2.3395 C.ar    1  UNL1        0.0172
      5 C          62.8590   95.7618   -3.3271 C.ar    1  UNL1        0.0618
      6 C          63.2549   95.2954   -4.6967 C.ar    1  UNL1        0.0394
      7 C          62.0031   94.9614   -5.4525 C.ar    1  UNL1        0.1030
      8 N          61.7771   94.4541   -6.8459 N.ar    1  UNL1       -0.2224
      9 C          60.3814   94.2068   -7.3369 C.ar    1  UNL1        0.2001
     10 N          59.2118   94.4668   -6.4345 N.ar    1  UNL1       -0.2075
     11 C          59.4378   94.9741   -5.0411 C.ar    1  UNL1        0.1509
     12 C          60.8334   95.2214   -4.5501 C.ar    1  UNL1        0.1101
     13 N          61.3624   95.7161   -3.2366 N.ar    1  UNL1       -0.3195
     14 N          58.2681   95.2341   -4.1387 N.pl3   1  UNL1       -0.2892
     15 C          57.6376   96.5945   -4.1014 C.3     1  UNL1        0.1095
     16 C          56.4679   96.8545   -3.1989 C.3     1  UNL1        0.0939
     17 N          55.9288   95.7540   -2.3339 N.3     1  UNL1       -0.2695
     18 C          56.5594   94.3934   -2.3713 C.3     1  UNL1        0.0939
     19 C          57.7290   94.1335   -3.2737 C.3     1  UNL1        0.1095
     20 C          54.7591   96.0140   -1.4315 C.3     1  UNL1        0.0769
     21 C          53.4205   95.4153   -1.7474 C.3     1  UNL1        0.0437
     22 C          52.7202   95.7754   -3.0240 C.ar    1  UNL1       -0.0184
     23 C          51.2356   95.9886   -3.0307 C.ar    1  UNL1       -0.0018
     24 C          50.5353   96.3488   -4.3074 C.ar    1  UNL1        0.0316
     25 C          51.3197   96.4957   -5.5774 C.ar    1  UNL1        0.1674
     26 F          50.6194   96.8559   -6.8541 F       1  UNL1       -0.2018
     27 C          52.8045   96.2825   -5.5708 C.ar    1  UNL1        0.1671
     28 F          53.5890   96.4294   -6.8408 F       1  UNL1       -0.2018
     29 C          53.5047   95.9224   -4.2942 C.ar    1  UNL1        0.0277
     30 N          64.8735   93.3410   -6.8489 N.am    1  UNL1       -0.3253
     31 C          65.1002   94.7686   -6.4481 C.2     1  UNL1        0.2428
     32 O          65.7227   95.7297   -7.4169 O.2     1  UNL1       -0.2704
     33 H          65.1334   93.0349   -7.7478 H       1  UNL1        0.1453
     34 H          64.4649   92.7102   -6.2130 H       1  UNL1        0.1453
     35 C          60.5394   96.0980   -2.0421 C.3     1  UNL1        0.1329
     36 C          60.5375   95.2251   -0.8224 C.ar    1  UNL1        0.0035
     37 C          60.4801   95.8439    0.5428 C.ar    1  UNL1        0.0183
     38 C          60.4783   94.9709    1.7626 C.ar    1  UNL1        0.0986
     39 N          60.5339   93.4791    1.6173 N.ar    1  UNL1       -0.2423
     40 C          60.5913   92.8601    0.2521 C.ar    1  UNL1        0.0986
     41 C          60.5931   93.7331   -0.9677 C.ar    1  UNL1        0.0183
@<TRIPOS>BOND
     1    30    31   am
     2    31    32    2
     3    31     1    1
     4     1     2   ar
     5     2     3   ar
     6     3     4   ar
     7     4     5   ar
     8     5     6   ar
     9     6     7   ar
    10     7     8   ar
    11     8     9   ar
    12     9    10   ar
    13    10    11   ar
    14    11    14    1
    15    14    15    1
    16    15    16    1
    17    16    17    1
    18    17    20    1
    19    20    21    1
    20    21    22    1
    21    22    23   ar
    22    23    24   ar
    23    24    25   ar
    24    25    26    1
    25    25    27   ar
    26    27    28    1
    27    27    29   ar
    28    17    18    1
    29    18    19    1
    30    11    12   ar
    31    12    13   ar
    32    13    35    1
    33    35    36    1
    34    36    37   ar
    35    37    38   ar
    36    38    39   ar
    37    39    40   ar
    38    40    41   ar
    39     6     1   ar
    40    12     7   ar
    41    41    36   ar
    42    13     5   ar
    43    19    14    1
    44    29    22   ar
    45    30    33    1
    46    30    34    1
@<TRIPOS>MOLECULE
*****
 41 46 0 0 0
SMALL
GASTEIGER

@<TRIPOS>ATOM
      1 C          63.9558   84.4653   13.8132 C.ar    1  UNL1        0.0560
      2 C          63.8658   82.9720   13.7053 C.ar    1  UNL1        0.0046
      3 C          63.0761   82.3465   12.5939 C.ar    1  UNL1        0.0016
      4 C          62.3763   83.2144   11.5904 C.ar    1  UNL1        0.0172
      5 C          62.4663   84.7078   11.6983 C.ar    1  UNL1        0.0618
      6 C          63.2560   85.3332   12.8097 C.ar    1  UNL1        0.0394
      7 C          63.1652   86.8231   12.6613 C.ar    1  UNL1        0.1030
      8 N          63.7434   87.9490   13.4662 N.ar    1  UNL1       -0.2224
      9 C          63.4758   89.3703   13.0681 C.ar    1  UNL1        0.2001
     10 N          62.6299   89.6656   11.8651 N.ar    1  UNL1       -0.2075
     11 C          62.0517   88.5397   11.0602 C.ar    1  UNL1        0.1509
     12 C          62.3193   87.1185   11.4583 C.ar    1  UNL1        0.1101
     13 N          61.8874   85.8111   10.8631 N.ar    1  UNL1       -0.3195
     14 N          61.2058   88.8351    9.8571 N.pl3   1  UNL1       -0.2892
     15 C          61.5536   89.9857    8.9600 C.3     1  UNL1        0.1095
     16 C          60.7077   90.2811    7.7569 C.3     1  UNL1        0.0939
     17 N          59.5141   89.4257    7.4511 N.3     1  UNL1       -0.2695
     18 C          59.1663   88.2749    8.3483 C.3     1  UNL1        0.0939
     19 C          60.0121   87.9797    9.5512 C.3     1  UNL1        0.1095
     20 C          58.6682   89.7210    6.2480 C.3     1  UNL1        0.0769
     21 C          58.6043   91.1160    5.7002 C.3     1  UNL1        0.0437
     22 C          59.6087   91.5687    4.6822 C.ar    1  UNL1       -0.0184
     23 C          59.2413   92.6278    3.6857 C.ar    1  UNL1       -0.0018
     24 C          60.2457   93.0805    2.6677 C.ar    1  UNL1        0.0316
     25 C          61.6174   92.4740    2.6462 C.ar    1  UNL1        0.1674
     26 F          62.6218   92.9268    1.6282 F       1  UNL1       -0.2018
     27 C          61.9848   91.4149    3.6428 C.ar    1  UNL1        0.1671
     28 F          63.3566   90.8084    3.6214 F       1  UNL1       -0.2018
     29 C          60.9805   90.9622    4.6608 C.ar    1  UNL1        0.0277
     30 N          66.2355   85.2169   14.8070 N.am    1  UNL1       -0.3253
     31 C          64.7455   85.0908   14.9245 C.2     1  UNL1        0.2428
     32 O          64.0452   85.5902   16.1533 O.2     1  UNL1       -0.2704
     33 H          66.7538   85.6274   15.5365 H       1  UNL1        0.1453
     34 H          66.6952   84.8891   14.0005 H       1  UNL1        0.1453
     35 C          61.0275   85.6375    9.6464 C.3     1  UNL1        0.1329
     36 C          61.6481   85.2407    8.3398 C.ar    1  UNL1        0.0035
     37 C          63.1408   85.1737    8.2080 C.ar    1  UNL1        0.0183
     38 C          63.7613   84.7769    6.9013 C.ar    1  UNL1        0.0986
     39 N          62.8893   84.4470    5.7264 N.ar    1  UNL1       -0.2423
     40 C          61.3965   84.5139    5.8580 C.ar    1  UNL1        0.0986
     41 C          60.7760   84.9107    7.1647 C.ar    1  UNL1        0.0183
@<TRIPOS>BOND
     1    30    31   am
     2    31    32    2
     3    31     1    1
     4     1     2   ar
     5     2     3   ar
     6     3     4   ar
     7     4     5   ar
     8     5     6   ar
     9     6     7   ar
    10     7     8   ar
    11     8     9   ar
    12     9    10   ar
    13    10    11   ar
    14    11    14    1
    15    14    15    1
    16    15    16    1
    17    16    17    1
    18    17    20    1
    19    20    21    1
    20    21    22    1
    21    22    23   ar
    22    23    24   ar
    23    24    25   ar
    24    25    26    1
    25    25    27   ar
    26    27    28    1
    27    27    29   ar
    28    17    18    1
    29    18    19    1
    30    11    12   ar
    31    12    13   ar
    32    13    35    1
    33    35    36    1
    34    36    37   ar
    35    37    38   ar
    36    38    39   ar
    37    39    40   ar
    38    40    41   ar
    39     6     1   ar
    40    12     7   ar
    41    41    36   ar
    42    13     5   ar
    43    19    14    1
    44    29    22   ar
    45    30    33    1
    46    30    34    1
