@<TRIPOS>MOLECULE
*****
 39 42 0 0 0
SMALL
GASTEIGER

@<TRIPOS>ATOM
      1 C          60.7242   87.5273    9.7468 C.ar    1  UNL1        0.0502
      2 C          59.8382   87.0599    8.6304 C.ar    1  UNL1        0.0143
      3 C          59.6156   87.9353    7.4329 C.ar    1  UNL1       -0.0030
      4 C          60.2790   89.2782    7.3518 C.ar    1  UNL1       -0.0223
      5 C          61.1649   89.7457    8.4683 C.ar    1  UNL1       -0.0034
      6 C          61.3876   88.8702    9.6658 C.ar    1  UNL1        0.0089
      7 C          60.0563   90.1537    6.1543 C.3     1  UNL1        0.0257
      8 C          61.2293   90.7261    5.4152 C.3     1  UNL1        0.0259
      9 C          61.0067   91.6015    4.2176 C.3     1  UNL1        0.0938
     10 N          59.6110   91.9045    3.7592 N.am    1  UNL1       -0.2784
     11 C          59.3883   92.7799    2.5617 C.2     1  UNL1        0.2418
     12 O          57.9925   93.0829    2.1033 O.2     1  UNL1       -0.2734
     13 C          58.4379   91.3320    4.4984 C.3     1  UNL1        0.0938
     14 C          58.6606   90.4566    5.6959 C.3     1  UNL1        0.0259
     15 C          60.5613   93.3523    1.8226 C.3     1  UNL1        0.1552
     16 N          61.2123   92.5652    0.7241 N.3     1  UNL1       -0.2877
     17 H          60.9682   91.5869    0.8783 H       1  UNL1        0.1238
     18 C          60.8918   92.8709   -0.7090 C.3     1  UNL1        0.1011
     19 C          59.4733   92.8008   -1.1916 C.3     1  UNL1        0.1542
     20 O          58.5529   91.7406   -0.6635 O.3     1  UNL1       -0.3805
     21 H          58.8654   90.8685   -0.9512 H       1  UNL1        0.2105
     22 C          62.2736   89.3377   10.7823 C.2     1  UNL1       -0.0253
     23 C          62.6784   88.3847   11.8676 C.2     1  UNL1       -0.0303
     24 C          63.5644   88.8521   12.9841 C.3     1  UNL1        0.0257
     25 C          64.0456   90.2725   13.0153 C.3     1  UNL1        0.0050
     26 C          63.6408   91.2255   11.9299 C.3     1  UNL1        0.0050
     27 C          62.7547   90.7581   10.8134 C.3     1  UNL1        0.0261
     28 C          61.9999   85.5844   10.9076 C.2     1  UNL1        0.2837
     29 O          62.8304   85.3923    9.6732 O.2     1  UNL1       -0.2665
     30 N          60.9468   86.6519   10.9444 N.am    1  UNL1       -0.2779
     31 H          60.4018   86.7780   11.7545 H       1  UNL1        0.1553
     32 C          62.6402   82.7660   13.4984 C.ar    1  UNL1        0.1469
     33 C          62.4904   83.9575   14.3973 C.ar    1  UNL1        0.1282
     34 N          62.2324   85.1583   13.5362 N.ar    1  UNL1       -0.2205
     35 C          62.2226   84.7089   12.1051 C.ar    1  UNL1        0.1958
     36 N          62.4747   83.2305   12.0817 N.ar    1  UNL1       -0.3257
     37 H          62.5229   82.6643   11.2777 H       1  UNL1        0.1682
     38 N          63.1765   79.9488   14.3792 N.1     1  UNL1       -0.1893
     39 C          62.9083   81.3574   13.9388 C.1     1  UNL1        0.1194
@<TRIPOS>BOND
     1    38    39    3
     2    39    32    1
     3    32    33   ar
     4    33    34   ar
     5    34    35   ar
     6    35    28    1
     7    28    29    2
     8    28    30   am
     9    30     1    1
    10     1     2   ar
    11     2     3   ar
    12     3     4   ar
    13     4     7    1
    14     7     8    1
    15     8     9    1
    16     9    10    1
    17    10    11   am
    18    11    12    2
    19    11    15    1
    20    15    16    1
    21    16    18    1
    22    18    19    1
    23    19    20    1
    24    10    13    1
    25    13    14    1
    26     4     5   ar
    27     5     6   ar
    28     6    22    1
    29    22    23    2
    30    23    24    1
    31    24    25    1
    32    25    26    1
    33    26    27    1
    34    35    36   ar
    35    36    32   ar
    36     6     1   ar
    37    27    22    1
    38    14     7    1
    39    30    31    1
    40    16    17    1
    41    20    21    1
    42    36    37    1
@<TRIPOS>MOLECULE
*****
 39 42 0 0 0
SMALL
GASTEIGER

@<TRIPOS>ATOM
      1 C          62.8171   86.8545   12.8527 C.ar    1  UNL1        0.0502
      2 C          62.7991   87.3916   11.4524 C.ar    1  UNL1        0.0143
      3 C          63.3144   88.7721   11.1720 C.ar    1  UNL1       -0.0030
      4 C          63.8476   89.6155   12.2920 C.ar    1  UNL1       -0.0223
      5 C          63.8656   89.0783   13.6924 C.ar    1  UNL1       -0.0034
      6 C          63.3503   87.6978   13.9727 C.ar    1  UNL1        0.0089
      7 C          64.3629   90.9961   12.0116 C.3     1  UNL1        0.0257
      8 C          64.1362   91.6226   10.6677 C.3     1  UNL1        0.0259
      9 C          64.6515   93.0032   10.3873 C.3     1  UNL1        0.0938
     10 N          65.3935   93.7571   11.4508 N.am    1  UNL1       -0.2784
     11 C          65.9088   95.1376   11.1704 C.2     1  UNL1        0.2418
     12 O          66.6508   95.8916   12.2339 O.2     1  UNL1       -0.2734
     13 C          65.6202   93.1305   12.7947 C.3     1  UNL1        0.0938
     14 C          65.1049   91.7500   13.0751 C.3     1  UNL1        0.0259
     15 C          65.6820   95.7642    9.8266 C.3     1  UNL1        0.1552
     16 N          66.5049   95.3321    8.6491 N.3     1  UNL1       -0.2877
     17 H          66.5669   96.1348    8.0228 H       1  UNL1        0.1238
     18 C          67.9047   94.8341    8.8547 C.3     1  UNL1        0.1011
     19 C          68.1692   93.3612    8.9577 C.3     1  UNL1        0.1542
     20 O          69.2081   92.8506    9.9116 O.3     1  UNL1       -0.3805
     21 H          70.0847   93.1534    9.6274 H       1  UNL1        0.2105
     22 C          63.3682   87.1606   15.3732 C.2     1  UNL1       -0.0253
     23 C          62.8354   87.9920   16.5023 C.2     1  UNL1       -0.0303
     24 C          62.8533   87.4549   17.9026 C.3     1  UNL1        0.0257
     25 C          63.4041   86.0862   18.1740 C.3     1  UNL1        0.0050
     26 C          63.9369   85.2548   17.0449 C.3     1  UNL1        0.0050
     27 C          63.9190   85.7920   15.6445 C.3     1  UNL1        0.0261
     28 C          63.2137   84.2908   12.9963 C.2     1  UNL1        0.2837
     29 O          64.6409   84.4884   12.5789 O.2     1  UNL1       -0.2665
     30 N          62.3018   85.4739   13.1332 N.am    1  UNL1       -0.2779
     31 H          61.3651   85.3443   13.4071 H       1  UNL1        0.1553
     32 C          61.2321   81.0710   13.8743 C.ar    1  UNL1        0.1469
     33 C          62.5792   80.5007   13.5420 C.ar    1  UNL1        0.1282
     34 N          63.4854   81.6375   13.1726 N.ar    1  UNL1       -0.2205
     35 C          62.6985   82.9103   13.2766 C.ar    1  UNL1        0.1958
     36 N          61.3059   82.5602   13.7103 N.ar    1  UNL1       -0.3257
     37 H          60.5696   83.1961   13.8608 H       1  UNL1        0.1682
     38 N          58.8149   79.5076   14.7187 N.1     1  UNL1       -0.1893
     39 C          60.0235   80.2893   14.2965 C.1     1  UNL1        0.1194
@<TRIPOS>BOND
     1    38    39    3
     2    39    32    1
     3    32    33   ar
     4    33    34   ar
     5    34    35   ar
     6    35    28    1
     7    28    29    2
     8    28    30   am
     9    30     1    1
    10     1     2   ar
    11     2     3   ar
    12     3     4   ar
    13     4     7    1
    14     7     8    1
    15     8     9    1
    16     9    10    1
    17    10    11   am
    18    11    12    2
    19    11    15    1
    20    15    16    1
    21    16    18    1
    22    18    19    1
    23    19    20    1
    24    10    13    1
    25    13    14    1
    26     4     5   ar
    27     5     6   ar
    28     6    22    1
    29    22    23    2
    30    23    24    1
    31    24    25    1
    32    25    26    1
    33    26    27    1
    34    35    36   ar
    35    36    32   ar
    36     6     1   ar
    37    27    22    1
    38    14     7    1
    39    30    31    1
    40    16    17    1
    41    20    21    1
    42    36    37    1
@<TRIPOS>MOLECULE
*****
 39 42 0 0 0
SMALL
GASTEIGER

@<TRIPOS>ATOM
      1 C          73.1521   76.6927   12.1627 C.ar    1  UNL1        0.0502
      2 C          72.9924   75.3997   11.4194 C.ar    1  UNL1        0.0143
      3 C          72.7984   74.1189   12.1757 C.ar    1  UNL1       -0.0030
      4 C          72.7641   74.1312   13.6753 C.ar    1  UNL1       -0.0223
      5 C          72.9238   75.4242   14.4186 C.ar    1  UNL1       -0.0034
      6 C          73.1178   76.7050   13.6623 C.ar    1  UNL1        0.0089
      7 C          72.5701   72.8503   14.4315 C.3     1  UNL1        0.0257
      8 C          71.3142   72.6283   15.2209 C.3     1  UNL1        0.0259
      9 C          71.1202   71.3474   15.9772 C.3     1  UNL1        0.0938
     10 N          72.1822   70.2887   15.9440 N.am    1  UNL1       -0.2784
     11 C          71.9883   69.0079   16.7002 C.2     1  UNL1        0.2418
     12 O          73.0503   67.9491   16.6671 O.2     1  UNL1       -0.2734
     13 C          73.4383   70.5108   15.1546 C.3     1  UNL1        0.0938
     14 C          73.6322   71.7916   14.3984 C.3     1  UNL1        0.0259
     15 C          70.7323   68.7858   17.4896 C.3     1  UNL1        0.1552
     16 N          70.4627   69.6057   18.7165 N.3     1  UNL1       -0.2877
     17 H          71.3294   69.6250   19.2540 H       1  UNL1        0.1238
     18 C          70.0044   71.0276   18.5827 C.3     1  UNL1        0.1011
     19 C          70.8081   72.1355   19.1963 C.3     1  UNL1        0.1542
     20 O          70.4604   73.5651   18.9039 O.3     1  UNL1       -0.3805
     21 H          70.6184   73.7508   17.9650 H       1  UNL1        0.2105
     22 C          73.2775   77.9981   14.4056 C.2     1  UNL1       -0.0253
     23 C          73.4726   79.2787   13.6493 C.2     1  UNL1       -0.0303
     24 C          73.6323   80.5718   14.3925 C.3     1  UNL1        0.0257
     25 C          73.5969   80.5843   15.8921 C.3     1  UNL1        0.0050
     26 C          73.4019   79.3037   16.6484 C.3     1  UNL1        0.0050
     27 C          73.2422   78.0106   15.9051 C.3     1  UNL1        0.0261
     28 C          72.1605   78.6970   10.8400 C.2     1  UNL1        0.2837
     29 O          70.7808   78.1395   11.0298 O.2     1  UNL1       -0.2665
     30 N          73.3461   77.9735   11.4065 N.am    1  UNL1       -0.2779
     31 H          74.2516   78.3394   11.2819 H       1  UNL1        0.1553
     32 C          72.3429   81.6368    8.3124 C.ar    1  UNL1        0.1469
     33 C          72.9628   82.2606    9.5276 C.ar    1  UNL1        0.1282
     34 N          72.9699   81.2352   10.6224 N.ar    1  UNL1       -0.2205
     35 C          72.3544   79.9777   10.0837 C.ar    1  UNL1        0.1958
     36 N          71.9670   80.2260    8.6561 N.ar    1  UNL1       -0.3257
     37 H          71.5407   79.5769    8.0509 H       1  UNL1        0.1682
     38 N          71.9281   82.9760    5.6601 N.1     1  UNL1       -0.1893
     39 C          72.1355   82.3064    6.9862 C.1     1  UNL1        0.1194
@<TRIPOS>BOND
     1    38    39    3
     2    39    32    1
     3    32    33   ar
     4    33    34   ar
     5    34    35   ar
     6    35    28    1
     7    28    29    2
     8    28    30   am
     9    30     1    1
    10     1     2   ar
    11     2     3   ar
    12     3     4   ar
    13     4     7    1
    14     7     8    1
    15     8     9    1
    16     9    10    1
    17    10    11   am
    18    11    12    2
    19    11    15    1
    20    15    16    1
    21    16    18    1
    22    18    19    1
    23    19    20    1
    24    10    13    1
    25    13    14    1
    26     4     5   ar
    27     5     6   ar
    28     6    22    1
    29    22    23    2
    30    23    24    1
    31    24    25    1
    32    25    26    1
    33    26    27    1
    34    35    36   ar
    35    36    32   ar
    36     6     1   ar
    37    27    22    1
    38    14     7    1
    39    30    31    1
    40    16    17    1
    41    20    21    1
    42    36    37    1
@<TRIPOS>MOLECULE
*****
 39 42 0 0 0
SMALL
GASTEIGER

@<TRIPOS>ATOM
      1 C          61.3009   87.5308    8.7380 C.ar    1  UNL1        0.0502
      2 C          62.0371   86.3601    8.1570 C.ar    1  UNL1        0.0143
      3 C          62.4666   85.2292    9.0438 C.ar    1  UNL1       -0.0030
      4 C          62.1599   85.2689   10.5116 C.ar    1  UNL1       -0.0223
      5 C          61.4237   86.4396   11.0925 C.ar    1  UNL1       -0.0034
      6 C          60.9941   87.5705   10.2057 C.ar    1  UNL1        0.0089
      7 C          62.5895   84.1379   11.3984 C.3     1  UNL1        0.0257
      8 C          61.9500   82.7886   11.2559 C.3     1  UNL1        0.0259
      9 C          62.3796   81.6576   12.1427 C.3     1  UNL1        0.0938
     10 N          63.4486   81.8760   13.1721 N.am    1  UNL1       -0.2784
     11 C          63.8782   80.7451   14.0589 C.2     1  UNL1        0.2418
     12 O          64.9472   80.9636   15.0882 O.2     1  UNL1       -0.2734
     13 C          64.0880   83.2255   13.3146 C.3     1  UNL1        0.0938
     14 C          63.6585   84.3564   12.4278 C.3     1  UNL1        0.0259
     15 C          63.2387   79.3958   13.9163 C.3     1  UNL1        0.1552
     16 N          61.7592   79.2866   13.6944 N.3     1  UNL1       -0.2877
     17 H          61.4870   78.3464   13.9813 H       1  UNL1        0.1238
     18 C          60.8253   80.2369   14.3834 C.3     1  UNL1        0.1011
     19 C          59.3507   80.1631   14.1190 C.3     1  UNL1        0.1542
     20 O          58.4131   79.7408   15.2111 O.3     1  UNL1       -0.3805
     21 H          58.5830   78.8143   15.4428 H       1  UNL1        0.2105
     22 C          60.2579   88.7412   10.7867 C.2     1  UNL1       -0.0253
     23 C          60.6347   90.1372   10.3876 C.2     1  UNL1       -0.0303
     24 C          59.8985   91.3078   10.9685 C.3     1  UNL1        0.0257
     25 C          58.7854   91.0826   11.9485 C.3     1  UNL1        0.0050
     26 C          58.4085   89.6866   12.3475 C.3     1  UNL1        0.0050
     27 C          59.1448   88.5159   11.7666 C.3     1  UNL1        0.0261
     28 C          59.5174   88.6363    7.2059 C.2     1  UNL1        0.2837
     29 O          58.5930   87.4799    7.4476 O.2     1  UNL1       -0.2665
     30 N          60.8713   88.6618    7.8511 N.am    1  UNL1       -0.2779
     31 H          61.4780   89.4207    7.6926 H       1  UNL1        0.1553
     32 C          59.1431   91.6392    4.7754 C.ar    1  UNL1        0.1469
     33 C          57.7104   91.3759    5.1336 C.ar    1  UNL1        0.1282
     34 N          57.6763   90.2190    6.0877 N.ar    1  UNL1       -0.2205
     35 C          59.0878   89.7672    6.3191 C.ar    1  UNL1        0.1958
     36 N          59.9943   90.6450    5.5081 N.ar    1  UNL1       -0.3257
     37 H          60.9757   90.5800    5.4644 H       1  UNL1        0.1682
     38 N          60.1322   93.7787    2.9194 N.1     1  UNL1       -0.1893
     39 C          59.6376   92.7089    3.8474 C.1     1  UNL1        0.1194
@<TRIPOS>BOND
     1    38    39    3
     2    39    32    1
     3    32    33   ar
     4    33    34   ar
     5    34    35   ar
     6    35    28    1
     7    28    29    2
     8    28    30   am
     9    30     1    1
    10     1     2   ar
    11     2     3   ar
    12     3     4   ar
    13     4     7    1
    14     7     8    1
    15     8     9    1
    16     9    10    1
    17    10    11   am
    18    11    12    2
    19    11    15    1
    20    15    16    1
    21    16    18    1
    22    18    19    1
    23    19    20    1
    24    10    13    1
    25    13    14    1
    26     4     5   ar
    27     5     6   ar
    28     6    22    1
    29    22    23    2
    30    23    24    1
    31    24    25    1
    32    25    26    1
    33    26    27    1
    34    35    36   ar
    35    36    32   ar
    36     6     1   ar
    37    27    22    1
    38    14     7    1
    39    30    31    1
    40    16    17    1
    41    20    21    1
    42    36    37    1
@<TRIPOS>MOLECULE
*****
 39 42 0 0 0
SMALL
GASTEIGER

@<TRIPOS>ATOM
      1 C          61.0913   88.1797    9.1840 C.ar    1  UNL1        0.0502
      2 C          60.5021   86.8143    8.9879 C.ar    1  UNL1        0.0143
      3 C          60.9533   85.6721    9.8491 C.ar    1  UNL1       -0.0030
      4 C          61.9936   85.8952   10.9064 C.ar    1  UNL1       -0.0223
      5 C          62.5828   87.2606   11.1025 C.ar    1  UNL1       -0.0034
      6 C          62.1316   88.4028   10.2413 C.ar    1  UNL1        0.0089
      7 C          62.4448   84.7529   11.7676 C.3     1  UNL1        0.0257
      8 C          62.0491   83.3487   11.4187 C.3     1  UNL1        0.0259
      9 C          62.5003   82.2064   12.2799 C.3     1  UNL1        0.0938
     10 N          63.3471   82.4683   13.4900 N.am    1  UNL1       -0.2784
     11 C          63.7983   81.3260   14.3511 C.2     1  UNL1        0.2418
     12 O          64.6451   81.5879   15.5612 O.2     1  UNL1       -0.2734
     13 C          63.7428   83.8725   13.8388 C.3     1  UNL1        0.0938
     14 C          63.2916   85.0148   12.9777 C.3     1  UNL1        0.0259
     15 C          63.4026   79.9219   14.0022 C.3     1  UNL1        0.1552
     16 N          61.9596   79.5855   13.7680 N.3     1  UNL1       -0.2877
     17 H          61.8333   78.6148   14.0548 H       1  UNL1        0.1238
     18 C          60.8843   80.3810   14.4467 C.3     1  UNL1        0.1011
     19 C          59.4518   80.2085   14.0367 C.3     1  UNL1        0.1542
     20 O          58.5458   79.3170   14.8333 O.3     1  UNL1       -0.3805
     21 H          58.8480   78.3984   14.7578 H       1  UNL1        0.2105
     22 C          62.7208   89.7683   10.4374 C.2     1  UNL1       -0.0253
     23 C          63.3335   90.1386   11.7556 C.2     1  UNL1       -0.0303
     24 C          63.9226   91.5040   11.9518 C.3     1  UNL1        0.0257
     25 C          63.8992   92.4992   10.8297 C.3     1  UNL1        0.0050
     26 C          63.2865   92.1290    9.5115 C.3     1  UNL1        0.0050
     27 C          62.6973   90.7635    9.3154 C.3     1  UNL1        0.0261
     28 C          59.7974   89.0597    7.1100 C.2     1  UNL1        0.2837
     29 O          59.4057   87.6550    6.7584 O.2     1  UNL1       -0.2665
     30 N          60.6401   89.3220    8.3228 N.am    1  UNL1       -0.2779
     31 H          60.8972   90.2439    8.5536 H       1  UNL1        0.1553
     32 C          59.3538   92.0492    4.6746 C.ar    1  UNL1        0.1469
     33 C          57.9501   91.8702    5.1725 C.ar    1  UNL1        0.1282
     34 N          57.9455   90.7286    6.1454 N.ar    1  UNL1       -0.2205
     35 C          59.3462   90.2019    6.2488 C.ar    1  UNL1        0.1958
     36 N          60.2165   91.0181    5.3398 N.ar    1  UNL1       -0.3257
     37 H          61.1842   90.8982    5.2037 H       1  UNL1        0.1682
     38 N          60.2738   94.1078    2.6958 N.1     1  UNL1       -0.1893
     39 C          59.8138   93.0785    3.6852 C.1     1  UNL1        0.1194
@<TRIPOS>BOND
     1    38    39    3
     2    39    32    1
     3    32    33   ar
     4    33    34   ar
     5    34    35   ar
     6    35    28    1
     7    28    29    2
     8    28    30   am
     9    30     1    1
    10     1     2   ar
    11     2     3   ar
    12     3     4   ar
    13     4     7    1
    14     7     8    1
    15     8     9    1
    16     9    10    1
    17    10    11   am
    18    11    12    2
    19    11    15    1
    20    15    16    1
    21    16    18    1
    22    18    19    1
    23    19    20    1
    24    10    13    1
    25    13    14    1
    26     4     5   ar
    27     5     6   ar
    28     6    22    1
    29    22    23    2
    30    23    24    1
    31    24    25    1
    32    25    26    1
    33    26    27    1
    34    35    36   ar
    35    36    32   ar
    36     6     1   ar
    37    27    22    1
    38    14     7    1
    39    30    31    1
    40    16    17    1
    41    20    21    1
    42    36    37    1
@<TRIPOS>MOLECULE
*****
 39 42 0 0 0
SMALL
GASTEIGER

@<TRIPOS>ATOM
      1 C          60.6807   87.9752    9.1834 C.ar    1  UNL1        0.0502
      2 C          59.9035   87.4548    8.0108 C.ar    1  UNL1        0.0143
      3 C          59.7156   88.3130    6.7951 C.ar    1  UNL1       -0.0030
      4 C          60.3051   89.6917    6.7519 C.ar    1  UNL1       -0.0223
      5 C          61.0824   90.2121    7.9244 C.ar    1  UNL1       -0.0034
      6 C          61.2702   89.3539    9.1402 C.ar    1  UNL1        0.0089
      7 C          60.1172   90.5500    5.5360 C.3     1  UNL1        0.0257
      8 C          58.7351   90.8538    5.0387 C.3     1  UNL1        0.0259
      9 C          58.5472   91.7120    3.8229 C.3     1  UNL1        0.0938
     10 N          59.7415   92.2664    3.1044 N.am    1  UNL1       -0.2784
     11 C          59.5537   93.1246    1.8886 C.2     1  UNL1        0.2418
     12 O          60.7481   93.6790    1.1701 O.2     1  UNL1       -0.2734
     13 C          61.1237   91.9625    3.6018 C.3     1  UNL1        0.0938
     14 C          61.3115   91.1043    4.8175 C.3     1  UNL1        0.0259
     15 C          58.1716   93.4284    1.3913 C.3     1  UNL1        0.1552
     16 N          57.6336   92.7133    0.1875 N.3     1  UNL1       -0.2877
     17 H          56.7257   92.3316    0.4531 H       1  UNL1        0.1238
     18 C          57.4307   93.4579   -1.0987 C.3     1  UNL1        0.1011
     19 C          57.5947   94.9484   -1.1363 C.3     1  UNL1        0.1542
     20 O          56.4684   95.8381   -0.7003 O.3     1  UNL1       -0.3805
     21 H          55.7236   95.7412   -1.3142 H       1  UNL1        0.2105
     22 C          62.0475   89.8743   10.3129 C.2     1  UNL1       -0.0253
     23 C          61.7234   89.3987   11.6981 C.2     1  UNL1       -0.0303
     24 C          62.5007   89.9191   12.8707 C.3     1  UNL1        0.0257
     25 C          63.6020   90.9151   12.6581 C.3     1  UNL1        0.0050
     26 C          63.9261   91.3906   11.2729 C.3     1  UNL1        0.0050
     27 C          63.1488   90.8702   10.1003 C.3     1  UNL1        0.0261
     28 C          61.9427   86.0701   10.4196 C.2     1  UNL1        0.2837
     29 O          62.8289   85.8815    9.2241 O.2     1  UNL1       -0.2665
     30 N          60.8686   87.1170   10.3992 N.am    1  UNL1       -0.2779
     31 H          60.2870   87.2408   11.1838 H       1  UNL1        0.1553
     32 C          62.3693   84.4989   13.9430 C.ar    1  UNL1        0.1469
     33 C          62.4702   83.2836   13.0695 C.ar    1  UNL1        0.1282
     34 N          62.3226   83.7243   11.6433 N.ar    1  UNL1       -0.2205
     35 C          62.1306   85.2119   11.6353 C.ar    1  UNL1        0.1958
     36 N          62.1595   85.6906   13.0566 N.ar    1  UNL1       -0.3257
     37 H          62.0584   86.6233   13.3552 H       1  UNL1        0.1682
     38 N          62.5548   84.5389   16.9370 N.1     1  UNL1       -0.1893
     39 C          62.4621   84.5189   15.4400 C.1     1  UNL1        0.1194
@<TRIPOS>BOND
     1    38    39    3
     2    39    32    1
     3    32    33   ar
     4    33    34   ar
     5    34    35   ar
     6    35    28    1
     7    28    29    2
     8    28    30   am
     9    30     1    1
    10     1     2   ar
    11     2     3   ar
    12     3     4   ar
    13     4     7    1
    14     7     8    1
    15     8     9    1
    16     9    10    1
    17    10    11   am
    18    11    12    2
    19    11    15    1
    20    15    16    1
    21    16    18    1
    22    18    19    1
    23    19    20    1
    24    10    13    1
    25    13    14    1
    26     4     5   ar
    27     5     6   ar
    28     6    22    1
    29    22    23    2
    30    23    24    1
    31    24    25    1
    32    25    26    1
    33    26    27    1
    34    35    36   ar
    35    36    32   ar
    36     6     1   ar
    37    27    22    1
    38    14     7    1
    39    30    31    1
    40    16    17    1
    41    20    21    1
    42    36    37    1
