@<TRIPOS>MOLECULE
*****
 36 40 0 0 0
SMALL
GASTEIGER

@<TRIPOS>ATOM
      1 C          61.6945   88.0820   11.1177 C.ar    1  UNL1        0.0447
      2 C          61.4144   88.8166    9.8403 C.ar    1  UNL1        0.0156
      3 C          62.0903   90.1271    9.5651 C.ar    1  UNL1        0.0159
      4 C          63.0464   90.7029   10.5673 C.ar    1  UNL1        0.0507
      5 C          63.3266   89.9682   11.8447 C.ar    1  UNL1        0.0192
      6 C          62.6506   88.6577   12.1199 C.ar    1  UNL1        0.0157
      7 C          64.3093   90.7769   12.6386 C.2     1  UNL1        0.0578
      8 C          64.8669   90.4147   13.9831 C.2     1  UNL1        0.0384
      9 C          64.6365   92.0114   11.8518 C.2     1  UNL1        0.2496
     10 O          65.5788   93.1005   12.2716 O.2     1  UNL1       -0.2698
     11 N          63.8560   91.9657   10.5717 N.am    1  UNL1       -0.2804
     12 H          63.8723   92.6451    9.8595 H       1  UNL1        0.1552
     13 C          65.8468   91.3271   14.6593 C.ar    1  UNL1        0.0053
     14 C          65.4108   92.1647   15.8248 C.ar    1  UNL1        0.0002
     15 C          66.3907   93.0771   16.5009 C.ar    1  UNL1        0.0023
     16 C          67.8067   93.1520   16.0116 C.ar    1  UNL1        0.0296
     17 C          68.2427   92.3145   14.8461 C.ar    1  UNL1        0.1401
     18 F          69.6586   92.3894   14.3567 F       1  UNL1       -0.2042
     19 C          67.2627   91.4021   14.1699 C.ar    1  UNL1        0.0297
     20 C          64.4446   89.1400   14.6516 C.ar    1  UNL1        0.1403
     21 N          63.5494   89.0274   15.8500 N.ar    1  UNL1       -0.2313
     22 C          63.3950   87.5719   16.1781 C.ar    1  UNL1        0.0779
     23 C          62.5833   87.0033   17.3041 C.3     1  UNL1        0.0537
     24 C          64.1947   86.7849   15.1824 C.ar    1  UNL1        0.0884
     25 N          64.8433   87.7540   14.2392 N.ar    1  UNL1       -0.3365
     26 H          65.4281   87.5213   13.4821 H       1  UNL1        0.1674
     27 N          61.0185   86.7715   11.3930 N.pl3   1  UNL1       -0.3339
     28 H          60.0358   86.7133   11.3854 H       1  UNL1        0.1468
     29 N          63.4827   83.1057   12.2532 N.3     1  UNL1       -0.2726
     30 C          62.8052   83.8343   13.3757 C.3     1  UNL1        0.0738
     31 C          61.9837   85.0563   13.0890 C.3     1  UNL1        0.0368
     32 C          61.8399   85.5496   11.6797 C.3     1  UNL1        0.0718
     33 C          62.5175   84.8209   10.5572 C.3     1  UNL1        0.0368
     34 C          63.3389   83.5990   10.8440 C.3     1  UNL1        0.0738
     35 C          63.8443   80.8960   13.5711 C.3     1  UNL1        0.0188
     36 C          64.3041   81.8838   12.5400 C.3     1  UNL1        0.0721
@<TRIPOS>BOND
     1    35    36    1
     2    36    29    1
     3    29    30    1
     4    30    31    1
     5    31    32    1
     6    32    27    1
     7    27     1    1
     8     1     2   ar
     9     2     3   ar
    10     3     4   ar
    11     4     5   ar
    12     5     6   ar
    13     5     7    1
    14     7     8    2
    15     8    13    1
    16    13    14   ar
    17    14    15   ar
    18    15    16   ar
    19    16    17   ar
    20    17    18    1
    21    17    19   ar
    22     8    20    1
    23    20    21   ar
    24    21    22   ar
    25    22    23    1
    26    22    24   ar
    27    24    25   ar
    28     7     9    1
    29     9    10    2
    30     9    11   am
    31    32    33    1
    32    33    34    1
    33    34    29    1
    34     6     1   ar
    35    19    13   ar
    36    25    20   ar
    37    11     4    1
    38    27    28    1
    39    25    26    1
    40    11    12    1
@<TRIPOS>MOLECULE
*****
 36 40 0 0 0
SMALL
GASTEIGER

@<TRIPOS>ATOM
      1 C          63.5729   89.2761   13.1182 C.ar    1  UNL1        0.0447
      2 C          64.3248   89.5073   14.3953 C.ar    1  UNL1        0.0156
      3 C          64.7757   88.3398   15.2220 C.ar    1  UNL1        0.0159
      4 C          64.4747   86.9410   14.7716 C.ar    1  UNL1        0.0507
      5 C          63.7228   86.7098   13.4945 C.ar    1  UNL1        0.0192
      6 C          63.2719   87.8773   12.6677 C.ar    1  UNL1        0.0157
      7 C          63.5728   85.2292   13.3065 C.2     1  UNL1        0.0578
      8 C          62.8844   84.5515   12.1590 C.2     1  UNL1        0.0384
      9 C          64.2320   84.5454   14.4674 C.2     1  UNL1        0.2496
     10 O          64.3185   83.0637   14.6847 O.2     1  UNL1       -0.2698
     11 N          64.7894   85.6033   15.3729 N.am    1  UNL1       -0.2804
     12 H          65.2764   85.4471   16.2142 H       1  UNL1        0.1552
     13 C          62.8127   83.0541   12.1059 C.ar    1  UNL1        0.0053
     14 C          63.5018   82.3089   11.0015 C.ar    1  UNL1        0.0002
     15 C          63.4301   80.8116   10.9485 C.ar    1  UNL1        0.0023
     16 C          62.6693   80.0594   11.9999 C.ar    1  UNL1        0.0296
     17 C          61.9801   80.8046   13.1043 C.ar    1  UNL1        0.1401
     18 F          61.2193   80.0525   14.1556 F       1  UNL1       -0.2042
     19 C          62.0518   82.3020   13.1573 C.ar    1  UNL1        0.0297
     20 C          62.2676   85.3710   11.0645 C.ar    1  UNL1        0.1403
     21 N          61.0889   86.2879   11.2067 N.ar    1  UNL1       -0.2313
     22 C          60.8142   86.9011    9.8656 C.ar    1  UNL1        0.0779
     23 C          59.7223   87.8802    9.5509 C.3     1  UNL1        0.0537
     24 C          61.8231   86.3632    8.8945 C.ar    1  UNL1        0.0884
     25 N          62.7212   85.4177    9.6354 N.ar    1  UNL1       -0.3365
     26 H          63.4760   84.9157    9.2513 H       1  UNL1        0.1674
     27 N          63.1219   90.4437   12.2914 N.pl3   1  UNL1       -0.3339
     28 H          62.1827   90.5097   12.0038 H       1  UNL1        0.1468
     29 N          66.0623   93.6443   11.1252 N.3     1  UNL1       -0.2726
     30 C          66.0114   93.1526   12.5414 C.3     1  UNL1        0.0738
     31 C          65.0313   92.0857   12.9301 C.3     1  UNL1        0.0368
     32 C          64.1020   91.5105   11.9027 C.3     1  UNL1        0.0718
     33 C          64.1529   92.0023   10.4864 C.3     1  UNL1        0.0368
     34 C          65.1330   93.0692   10.0977 C.3     1  UNL1        0.0738
     35 C          67.6933   94.6755    9.3855 C.3     1  UNL1        0.0188
     36 C          67.0424   94.7112   10.7365 C.3     1  UNL1        0.0721
@<TRIPOS>BOND
     1    35    36    1
     2    36    29    1
     3    29    30    1
     4    30    31    1
     5    31    32    1
     6    32    27    1
     7    27     1    1
     8     1     2   ar
     9     2     3   ar
    10     3     4   ar
    11     4     5   ar
    12     5     6   ar
    13     5     7    1
    14     7     8    2
    15     8    13    1
    16    13    14   ar
    17    14    15   ar
    18    15    16   ar
    19    16    17   ar
    20    17    18    1
    21    17    19   ar
    22     8    20    1
    23    20    21   ar
    24    21    22   ar
    25    22    23    1
    26    22    24   ar
    27    24    25   ar
    28     7     9    1
    29     9    10    2
    30     9    11   am
    31    32    33    1
    32    33    34    1
    33    34    29    1
    34     6     1   ar
    35    19    13   ar
    36    25    20   ar
    37    11     4    1
    38    27    28    1
    39    25    26    1
    40    11    12    1
@<TRIPOS>MOLECULE
*****
 36 40 0 0 0
SMALL
GASTEIGER

@<TRIPOS>ATOM
      1 C          62.7513   89.5667   12.0593 C.ar    1  UNL1        0.0447
      2 C          62.4592   89.7683   10.6020 C.ar    1  UNL1        0.0156
      3 C          62.2715   88.5818    9.7036 C.ar    1  UNL1        0.0159
      4 C          62.3759   87.1938   10.2627 C.ar    1  UNL1        0.0507
      5 C          62.6679   86.9922   11.7200 C.ar    1  UNL1        0.0192
      6 C          62.8557   88.1787   12.6184 C.ar    1  UNL1        0.0157
      7 C          62.7124   85.5163   11.9840 C.2     1  UNL1        0.0578
      8 C          62.9754   84.8654   13.3096 C.2     1  UNL1        0.0384
      9 C          62.4478   84.8057   10.6898 C.2     1  UNL1        0.2496
     10 O          62.3997   83.3193   10.4939 O.2     1  UNL1       -0.2698
     11 N          62.2398   85.8425    9.6259 N.am    1  UNL1       -0.2804
     12 H          62.0477   85.6668    8.6764 H       1  UNL1        0.1552
     13 C          62.9890   83.3696   13.4210 C.ar    1  UNL1        0.0053
     14 C          64.2357   82.6042   13.0896 C.ar    1  UNL1        0.0002
     15 C          64.2494   81.1084   13.2010 C.ar    1  UNL1        0.0023
     16 C          63.0163   80.3780   13.6438 C.ar    1  UNL1        0.0296
     17 C          61.7696   81.1434   13.9751 C.ar    1  UNL1        0.1401
     18 F          60.5365   80.4129   14.4179 F       1  UNL1       -0.2042
     19 C          61.7560   82.6392   13.8637 C.ar    1  UNL1        0.0297
     20 C          63.2246   85.7101   14.5237 C.ar    1  UNL1        0.1403
     21 N          62.5664   85.5469   15.8618 N.ar    1  UNL1       -0.2313
     22 C          63.1110   86.6023   16.7780 C.ar    1  UNL1        0.0779
     23 C          62.7280   86.8064   18.2139 C.3     1  UNL1        0.0537
     24 C          64.1057   87.4179   16.0063 C.ar    1  UNL1        0.0884
     25 N          64.1759   86.8664   14.6132 N.ar    1  UNL1       -0.3365
     26 H          64.7463   87.2041   13.8853 H       1  UNL1        0.1674
     27 N          62.9390   90.7532   12.9578 N.pl3   1  UNL1       -0.3339
     28 H          62.1548   91.2329   13.3099 H       1  UNL1        0.1468
     29 N          67.0869   92.1196   14.0432 N.3     1  UNL1       -0.2726
     30 C          66.3221   91.2293   14.9772 C.3     1  UNL1        0.0738
     31 C          64.9395   90.7738   14.6154 C.3     1  UNL1        0.0368
     32 C          64.3216   91.2086   13.3196 C.3     1  UNL1        0.0718
     33 C          65.0865   92.0990   12.3856 C.3     1  UNL1        0.0368
     34 C          66.4691   92.5545   12.7474 C.3     1  UNL1        0.0738
     35 C          68.7257   93.2053   15.7420 C.3     1  UNL1        0.0188
     36 C          68.4695   92.5751   14.4050 C.3     1  UNL1        0.0721
@<TRIPOS>BOND
     1    35    36    1
     2    36    29    1
     3    29    30    1
     4    30    31    1
     5    31    32    1
     6    32    27    1
     7    27     1    1
     8     1     2   ar
     9     2     3   ar
    10     3     4   ar
    11     4     5   ar
    12     5     6   ar
    13     5     7    1
    14     7     8    2
    15     8    13    1
    16    13    14   ar
    17    14    15   ar
    18    15    16   ar
    19    16    17   ar
    20    17    18    1
    21    17    19   ar
    22     8    20    1
    23    20    21   ar
    24    21    22   ar
    25    22    23    1
    26    22    24   ar
    27    24    25   ar
    28     7     9    1
    29     9    10    2
    30     9    11   am
    31    32    33    1
    32    33    34    1
    33    34    29    1
    34     6     1   ar
    35    19    13   ar
    36    25    20   ar
    37    11     4    1
    38    27    28    1
    39    25    26    1
    40    11    12    1
@<TRIPOS>MOLECULE
*****
 36 40 0 0 0
SMALL
GASTEIGER

@<TRIPOS>ATOM
      1 C          63.6951   87.9317   14.6550 C.ar    1  UNL1        0.0447
      2 C          64.3624   86.8027   15.3830 C.ar    1  UNL1        0.0156
      3 C          64.4934   85.4604   14.7265 C.ar    1  UNL1        0.0159
      4 C          63.9571   85.2472   13.3420 C.ar    1  UNL1        0.0507
      5 C          63.2898   86.3762   12.6140 C.ar    1  UNL1        0.0192
      6 C          63.1588   87.7185   13.2705 C.ar    1  UNL1        0.0157
      7 C          62.8611   85.8709   11.2683 C.2     1  UNL1        0.0578
      8 C          62.1541   86.6672   10.2118 C.2     1  UNL1        0.0384
      9 C          63.2634   84.4296   11.1646 C.2     1  UNL1        0.2496
     10 O          63.0294   83.5315    9.9861 O.2     1  UNL1       -0.2698
     11 N          63.9408   84.0440   12.4462 N.am    1  UNL1       -0.2804
     12 H          64.3099   83.1571   12.6616 H       1  UNL1        0.1552
     13 C          61.7865   86.0235    8.9078 C.ar    1  UNL1        0.0053
     14 C          60.3513   85.9726    8.4748 C.ar    1  UNL1        0.0002
     15 C          59.9836   85.3289    7.1708 C.ar    1  UNL1        0.0023
     16 C          61.0512   84.7360    6.2997 C.ar    1  UNL1        0.0296
     17 C          62.4865   84.7869    6.7327 C.ar    1  UNL1        0.1401
     18 F          63.5541   84.1940    5.8617 F       1  UNL1       -0.2042
     19 C          62.8541   85.4306    8.0368 C.ar    1  UNL1        0.0297
     20 C          61.8148   88.1071   10.4593 C.ar    1  UNL1        0.1403
     21 N          60.5050   88.6290   10.9715 N.ar    1  UNL1       -0.2313
     22 C          60.6065   90.1225   11.0667 C.ar    1  UNL1        0.0779
     23 C          59.5253   91.0516   11.5333 C.3     1  UNL1        0.0537
     24 C          61.9790   90.5238   10.6134 C.ar    1  UNL1        0.0884
     25 N          62.7256   89.2783   10.2380 N.ar    1  UNL1       -0.3365
     26 H          63.6511   89.2367    9.9048 H       1  UNL1        0.1674
     27 N          63.5641   89.2741   15.3116 N.pl3   1  UNL1       -0.3339
     28 H          63.0015   89.3773   16.1129 H       1  UNL1        0.1468
     29 N          65.7425   92.8291   13.6185 N.3     1  UNL1       -0.2726
     30 C          64.9914   91.9054   12.7060 C.3     1  UNL1        0.0738
     31 C          64.2653   90.7204   13.2704 C.3     1  UNL1        0.0368
     32 C          64.2902   90.4591   14.7472 C.3     1  UNL1        0.0718
     33 C          65.0413   91.3828   15.6598 C.3     1  UNL1        0.0368
     34 C          65.7674   92.5678   15.0954 C.3     1  UNL1        0.0738
     35 C          66.1655   94.4868   11.6632 C.3     1  UNL1        0.0188
     36 C          66.4686   94.0141   13.0542 C.3     1  UNL1        0.0721
@<TRIPOS>BOND
     1    35    36    1
     2    36    29    1
     3    29    30    1
     4    30    31    1
     5    31    32    1
     6    32    27    1
     7    27     1    1
     8     1     2   ar
     9     2     3   ar
    10     3     4   ar
    11     4     5   ar
    12     5     6   ar
    13     5     7    1
    14     7     8    2
    15     8    13    1
    16    13    14   ar
    17    14    15   ar
    18    15    16   ar
    19    16    17   ar
    20    17    18    1
    21    17    19   ar
    22     8    20    1
    23    20    21   ar
    24    21    22   ar
    25    22    23    1
    26    22    24   ar
    27    24    25   ar
    28     7     9    1
    29     9    10    2
    30     9    11   am
    31    32    33    1
    32    33    34    1
    33    34    29    1
    34     6     1   ar
    35    19    13   ar
    36    25    20   ar
    37    11     4    1
    38    27    28    1
    39    25    26    1
    40    11    12    1
@<TRIPOS>MOLECULE
*****
 36 40 0 0 0
SMALL
GASTEIGER

@<TRIPOS>ATOM
      1 C          63.8764   87.9359   14.8954 C.ar    1  UNL1        0.0447
      2 C          64.3684   86.7467   15.6659 C.ar    1  UNL1        0.0156
      3 C          64.3334   85.3826   15.0430 C.ar    1  UNL1        0.0159
      4 C          63.8063   85.2077   13.6496 C.ar    1  UNL1        0.0507
      5 C          63.3142   86.3969   12.8791 C.ar    1  UNL1        0.0192
      6 C          63.3493   87.7610   13.5020 C.ar    1  UNL1        0.0157
      7 C          62.8535   85.9193   11.5339 C.2     1  UNL1        0.0578
      8 C          62.2852   86.7757   10.4414 C.2     1  UNL1        0.0384
      9 C          63.0608   84.4349   11.4730 C.2     1  UNL1        0.2496
     10 O          62.7362   83.5463   10.3088 O.2     1  UNL1       -0.2698
     11 N          63.6496   83.9951   12.7806 N.am    1  UNL1       -0.2804
     12 H          63.8910   83.0726   13.0255 H       1  UNL1        0.1552
     13 C          61.8655   86.1538    9.1425 C.ar    1  UNL1        0.0053
     14 C          60.4225   86.1737    8.7332 C.ar    1  UNL1        0.0002
     15 C          60.0027   85.5519    7.4343 C.ar    1  UNL1        0.0023
     16 C          61.0259   84.9101    6.5447 C.ar    1  UNL1        0.0296
     17 C          62.4688   84.8903    6.9540 C.ar    1  UNL1        0.1401
     18 F          63.4919   84.2485    6.0645 F       1  UNL1       -0.2042
     19 C          62.8886   85.5121    8.2529 C.ar    1  UNL1        0.0297
     20 C          62.1367   88.2540   10.6476 C.ar    1  UNL1        0.1403
     21 N          62.9955   89.3205   10.0349 N.ar    1  UNL1       -0.2313
     22 C          62.4928   90.6510   10.5115 C.ar    1  UNL1        0.0779
     23 C          63.0600   91.9904   10.1452 C.3     1  UNL1        0.0537
     24 C          61.3234   90.4068   11.4188 C.ar    1  UNL1        0.0884
     25 N          61.1034   88.9255   11.5028 N.ar    1  UNL1       -0.3365
     26 H          60.4037   88.4733   12.0273 H       1  UNL1        0.1674
     27 N          63.9115   89.3000   15.5182 N.pl3   1  UNL1       -0.3339
     28 H          63.5216   89.4438   16.4108 H       1  UNL1        0.1468
     29 N          65.7986   92.7352   13.3073 N.3     1  UNL1       -0.2726
     30 C          65.8794   92.6715   14.8037 C.3     1  UNL1        0.0738
     31 C          65.2503   91.5264   15.5407 C.3     1  UNL1        0.0368
     32 C          64.5405   90.4451   14.7813 C.3     1  UNL1        0.0718
     33 C          64.4597   90.5088   13.2848 C.3     1  UNL1        0.0368
     34 C          65.0887   91.6538   12.5478 C.3     1  UNL1        0.0738
     35 C          66.0608   94.1436   11.1398 C.3     1  UNL1        0.0188
     36 C          66.4276   93.8802   12.5703 C.3     1  UNL1        0.0721
@<TRIPOS>BOND
     1    35    36    1
     2    36    29    1
     3    29    30    1
     4    30    31    1
     5    31    32    1
     6    32    27    1
     7    27     1    1
     8     1     2   ar
     9     2     3   ar
    10     3     4   ar
    11     4     5   ar
    12     5     6   ar
    13     5     7    1
    14     7     8    2
    15     8    13    1
    16    13    14   ar
    17    14    15   ar
    18    15    16   ar
    19    16    17   ar
    20    17    18    1
    21    17    19   ar
    22     8    20    1
    23    20    21   ar
    24    21    22   ar
    25    22    23    1
    26    22    24   ar
    27    24    25   ar
    28     7     9    1
    29     9    10    2
    30     9    11   am
    31    32    33    1
    32    33    34    1
    33    34    29    1
    34     6     1   ar
    35    19    13   ar
    36    25    20   ar
    37    11     4    1
    38    27    28    1
    39    25    26    1
    40    11    12    1
@<TRIPOS>MOLECULE
*****
 36 40 0 0 0
SMALL
GASTEIGER

@<TRIPOS>ATOM
      1 C          64.3372   87.8744   14.2997 C.ar    1  UNL1        0.0447
      2 C          64.4637   89.2688   14.8378 C.ar    1  UNL1        0.0156
      3 C          63.7459   90.4006   14.1641 C.ar    1  UNL1        0.0159
      4 C          62.9016   90.1379   12.9525 C.ar    1  UNL1        0.0507
      5 C          62.7751   88.7435   12.4144 C.ar    1  UNL1        0.0192
      6 C          63.4929   87.6117   13.0880 C.ar    1  UNL1        0.0157
      7 C          61.8783   88.7899   11.2130 C.2     1  UNL1        0.0578
      8 C          61.4792   87.6188   10.3649 C.2     1  UNL1        0.0384
      9 C          61.4505   90.2130   11.0085 C.2     1  UNL1        0.2496
     10 O          60.5486   90.7148    9.9199 O.2     1  UNL1       -0.2698
     11 N          62.0829   91.0462   12.0835 N.am    1  UNL1       -0.2804
     12 H          61.9790   92.0184   12.1987 H       1  UNL1        0.1552
     13 C          60.5708   87.8197    9.1883 C.ar    1  UNL1        0.0053
     14 C          59.5111   86.8047    8.8771 C.ar    1  UNL1        0.0002
     15 C          58.6026   87.0056    7.7005 C.ar    1  UNL1        0.0023
     16 C          58.7538   88.2215    6.8352 C.ar    1  UNL1        0.0296
     17 C          59.8135   89.2365    7.1464 C.ar    1  UNL1        0.1401
     18 F          59.9647   90.4523    6.2811 F       1  UNL1       -0.2042
     19 C          60.7220   89.0355    8.3230 C.ar    1  UNL1        0.0297
     20 C          61.9887   86.2467   10.6933 C.ar    1  UNL1        0.1403
     21 N          62.9229   85.4282    9.8522 N.ar    1  UNL1       -0.2313
     22 C          63.1649   84.1279   10.5596 C.ar    1  UNL1        0.0779
     23 C          64.0382   83.0092   10.0740 C.3     1  UNL1        0.0537
     24 C          62.3802   84.1426   11.8380 C.ar    1  UNL1        0.0884
     25 N          61.6534   85.4521   11.9206 N.ar    1  UNL1       -0.3365
     26 H          61.0603   85.7395   12.6519 H       1  UNL1        0.1674
     27 N          65.0550   86.7425   14.9733 N.pl3   1  UNL1       -0.3339
     28 H          65.8737   86.9176   15.4913 H       1  UNL1        0.1468
     29 N          63.4663   82.5466   14.6264 N.3     1  UNL1       -0.2726
     30 C          62.7545   83.5494   15.4852 C.3     1  UNL1        0.0738
     31 C          63.2841   84.9481   15.6009 C.3     1  UNL1        0.0368
     32 C          64.5255   85.3439   14.8577 C.3     1  UNL1        0.0718
     33 C          65.2373   84.3410   13.9988 C.3     1  UNL1        0.0368
     34 C          64.7077   82.9424   13.8832 C.3     1  UNL1        0.0738
     35 C          61.6578   80.8890   13.7710 C.3     1  UNL1        0.0188
     36 C          62.9368   81.1480   14.5108 C.3     1  UNL1        0.0721
@<TRIPOS>BOND
     1    35    36    1
     2    36    29    1
     3    29    30    1
     4    30    31    1
     5    31    32    1
     6    32    27    1
     7    27     1    1
     8     1     2   ar
     9     2     3   ar
    10     3     4   ar
    11     4     5   ar
    12     5     6   ar
    13     5     7    1
    14     7     8    2
    15     8    13    1
    16    13    14   ar
    17    14    15   ar
    18    15    16   ar
    19    16    17   ar
    20    17    18    1
    21    17    19   ar
    22     8    20    1
    23    20    21   ar
    24    21    22   ar
    25    22    23    1
    26    22    24   ar
    27    24    25   ar
    28     7     9    1
    29     9    10    2
    30     9    11   am
    31    32    33    1
    32    33    34    1
    33    34    29    1
    34     6     1   ar
    35    19    13   ar
    36    25    20   ar
    37    11     4    1
    38    27    28    1
    39    25    26    1
    40    11    12    1
@<TRIPOS>MOLECULE
*****
 36 40 0 0 0
SMALL
GASTEIGER

@<TRIPOS>ATOM
      1 C          63.5907   87.4860   15.2501 C.ar    1  UNL1        0.0447
      2 C          64.2397   86.3164   15.9287 C.ar    1  UNL1        0.0156
      3 C          64.4273   85.0273   15.1852 C.ar    1  UNL1        0.0159
      4 C          63.9657   84.9078   13.7629 C.ar    1  UNL1        0.0507
      5 C          63.3167   86.0774   13.0843 C.ar    1  UNL1        0.0192
      6 C          63.1292   87.3666   13.8278 C.ar    1  UNL1        0.0157
      7 C          62.9657   85.6654   11.6854 C.2     1  UNL1        0.0578
      8 C          62.2995   86.5265   10.6535 C.2     1  UNL1        0.0384
      9 C          63.3978   84.2410   11.4994 C.2     1  UNL1        0.2496
     10 O          63.2396   83.4277   10.2490 O.2     1  UNL1       -0.2698
     11 N          64.0159   83.7728   12.7834 N.am    1  UNL1       -0.2804
     12 H          64.3889   82.8777   12.9535 H       1  UNL1        0.1552
     13 C          62.0098   85.9742    9.2893 C.ar    1  UNL1        0.0053
     14 C          63.1057   85.3308    8.4924 C.ar    1  UNL1        0.0002
     15 C          62.8160   84.7785    7.1282 C.ar    1  UNL1        0.0023
     16 C          61.4304   84.8696    6.5609 C.ar    1  UNL1        0.0296
     17 C          60.3345   85.5129    7.3579 C.ar    1  UNL1        0.1401
     18 F          58.9489   85.6039    6.7906 F       1  UNL1       -0.2042
     19 C          60.6242   86.0652    8.7221 C.ar    1  UNL1        0.0297
     20 C          61.9230   87.9399   10.9858 C.ar    1  UNL1        0.1403
     21 N          60.5302   88.4546   11.1991 N.ar    1  UNL1       -0.2313
     22 C          60.6197   89.9196   11.5082 C.ar    1  UNL1        0.0779
     23 C          59.4640   90.8334   11.7901 C.3     1  UNL1        0.0537
     24 C          62.0678   90.3105   11.4861 C.ar    1  UNL1        0.0884
     25 N          62.8732   89.0870   11.1632 N.ar    1  UNL1       -0.3365
     26 H          63.8534   89.0443   11.0820 H       1  UNL1        0.1674
     27 N          63.4032   88.7753   15.9936 N.pl3   1  UNL1       -0.3339
     28 H          62.7859   88.8165   16.7595 H       1  UNL1        0.1468
     29 N          65.6619   92.4543   14.7236 N.3     1  UNL1       -0.2726
     30 C          65.5962   91.2634   13.8141 C.3     1  UNL1        0.0738
     31 C          64.8433   90.0370   14.2374 C.3     1  UNL1        0.0368
     32 C          64.1561   90.0016   15.5703 C.3     1  UNL1        0.0718
     33 C          64.2218   91.1926   16.4798 C.3     1  UNL1        0.0368
     34 C          64.9747   92.4189   16.0565 C.3     1  UNL1        0.0738
     35 C          66.4226   94.0956   12.8588 C.3     1  UNL1        0.0188
     36 C          66.4148   93.6806   14.3003 C.3     1  UNL1        0.0721
@<TRIPOS>BOND
     1    35    36    1
     2    36    29    1
     3    29    30    1
     4    30    31    1
     5    31    32    1
     6    32    27    1
     7    27     1    1
     8     1     2   ar
     9     2     3   ar
    10     3     4   ar
    11     4     5   ar
    12     5     6   ar
    13     5     7    1
    14     7     8    2
    15     8    13    1
    16    13    14   ar
    17    14    15   ar
    18    15    16   ar
    19    16    17   ar
    20    17    18    1
    21    17    19   ar
    22     8    20    1
    23    20    21   ar
    24    21    22   ar
    25    22    23    1
    26    22    24   ar
    27    24    25   ar
    28     7     9    1
    29     9    10    2
    30     9    11   am
    31    32    33    1
    32    33    34    1
    33    34    29    1
    34     6     1   ar
    35    19    13   ar
    36    25    20   ar
    37    11     4    1
    38    27    28    1
    39    25    26    1
    40    11    12    1
