@<TRIPOS>MOLECULE
*****
 28 31 0 0 0
SMALL
GASTEIGER

@<TRIPOS>ATOM
      1 C          64.9894   92.0037   12.1721 C.ar    1  UNL1       -0.0004
      2 C          64.2982   91.8823   10.8464 C.ar    1  UNL1       -0.0011
      3 C          63.1266   90.9582   10.6932 C.ar    1  UNL1        0.0144
      4 C          62.6462   90.1554   11.8658 C.ar    1  UNL1        0.0497
      5 C          63.3375   90.2769   13.1915 C.ar    1  UNL1        0.0144
      6 C          64.5090   91.2010   13.3446 C.ar    1  UNL1       -0.0011
      7 N          61.4747   89.2313   11.7126 N.pl3   1  UNL1       -0.2927
      8 H          60.7147   89.2927   12.3354 H       1  UNL1        0.1541
      9 C          61.4611   88.2138   10.6106 C.ar    1  UNL1        0.1635
     10 N          62.6158   87.3533   10.1908 N.ar    1  UNL1       -0.2240
     11 C          62.1588   86.4858    9.0557 C.ar    1  UNL1        0.0892
     12 C          62.8657   85.4424    8.2422 C.ar    1  UNL1        0.0197
     13 C          62.1353   84.7233    7.1470 C.ar    1  UNL1        0.0016
     14 C          60.6981   85.0476    6.8653 C.ar    1  UNL1        0.0006
     15 C          59.9913   86.0910    7.6787 C.ar    1  UNL1        0.0081
     16 C          60.7217   86.8100    8.7739 C.ar    1  UNL1        0.0497
     17 S          60.2905   87.8780    9.7349 S.2     1  UNL1       -0.0515
     18 C          66.1610   92.9278   12.3253 C.3     1  UNL1        0.1240
     19 N          66.9946   92.8817   13.5715 N.ar    1  UNL1       -0.3045
     20 C          66.8624   93.7940   14.7549 C.ar    1  UNL1        0.0983
     21 C          67.8930   93.3913   15.7678 C.ar    1  UNL1        0.1193
     22 N          68.6620   92.2303   15.2104 N.ar    1  UNL1       -0.2223
     23 C          68.1067   91.9154   13.8530 C.ar    1  UNL1        0.1788
     24 C          65.8768   95.2629   11.2224 C.3     1  UNL1        0.0197
     25 C          66.4989   93.8980   11.2324 C.3     1  UNL1        0.0827
     26 N          67.4588   93.5033   10.1495 N.3     1  UNL1       -0.2696
     27 C          67.8354   94.4904    9.0847 C.3     1  UNL1        0.0897
     28 C          68.0422   92.1216   10.1313 C.3     1  UNL1        0.0897
@<TRIPOS>BOND
     1    25    24    1
     2    25    18    1
     3    18     1    1
     4     1     2   ar
     5     2     3   ar
     6     3     4   ar
     7     4     7    1
     8     7     9    1
     9     9    10   ar
    10    10    11   ar
    11    11    12   ar
    12    12    13   ar
    13    13    14   ar
    14    14    15   ar
    15    15    16   ar
    16    16    17   ar
    17     4     5   ar
    18     5     6   ar
    19    18    19    1
    20    19    20   ar
    21    20    21   ar
    22    21    22   ar
    23    22    23   ar
    24    25    26    1
    25    26    27    1
    26    26    28    1
    27     6     1   ar
    28    23    19   ar
    29    17     9   ar
    30    16    11   ar
    31     7     8    1
@<TRIPOS>MOLECULE
*****
 28 31 0 0 0
SMALL
GASTEIGER

@<TRIPOS>ATOM
      1 C          64.8612   91.7952   12.4561 C.ar    1  UNL1       -0.0004
      2 C          64.1128   91.7903   11.1562 C.ar    1  UNL1       -0.0011
      3 C          62.9684   90.8419   10.9532 C.ar    1  UNL1        0.0144
      4 C          62.5725   89.8986   12.0502 C.ar    1  UNL1        0.0497
      5 C          63.3209   89.9036   13.3501 C.ar    1  UNL1        0.0144
      6 C          64.4653   90.8518   13.5531 C.ar    1  UNL1       -0.0011
      7 N          61.4281   88.9503   11.8472 N.pl3   1  UNL1       -0.2927
      8 H          60.6670   88.9565   12.4717 H       1  UNL1        0.1541
      9 C          61.4434   87.9926   10.6929 C.ar    1  UNL1        0.1635
     10 N          62.6130   87.1648   10.2494 N.ar    1  UNL1       -0.2240
     11 C          62.1842   86.3551    9.0618 C.ar    1  UNL1        0.0892
     12 C          62.9148   85.3621    8.2073 C.ar    1  UNL1        0.0197
     13 C          62.2106   84.6963    7.0624 C.ar    1  UNL1        0.0016
     14 C          60.7759   85.0237    6.7719 C.ar    1  UNL1        0.0006
     15 C          60.0453   86.0167    7.6263 C.ar    1  UNL1        0.0081
     16 C          60.7495   86.6824    8.7712 C.ar    1  UNL1        0.0497
     17 S          60.2917   87.6944    9.7793 S.2     1  UNL1       -0.0515
     18 C          66.0056   92.7435   12.6591 C.3     1  UNL1        0.1240
     19 N          66.3775   93.7127   11.5764 N.ar    1  UNL1       -0.3045
     20 C          66.2138   95.2028   11.6326 C.ar    1  UNL1        0.0983
     21 C          66.7136   95.7731   10.3383 C.ar    1  UNL1        0.1193
     22 N          67.1861   94.6355    9.4823 N.ar    1  UNL1       -0.2223
     23 C          66.9784   93.3622   10.2475 C.ar    1  UNL1        0.1788
     24 C          66.1033   93.0962   15.2312 C.3     1  UNL1        0.0197
     25 C          66.7780   92.7225   13.9448 C.3     1  UNL1        0.0827
     26 N          68.2251   92.3278   13.9439 N.3     1  UNL1       -0.2696
     27 C          69.0943   92.6620   15.1198 C.3     1  UNL1        0.0897
     28 C          68.8031   91.5989   12.7672 C.3     1  UNL1        0.0897
@<TRIPOS>BOND
     1    25    24    1
     2    25    18    1
     3    18     1    1
     4     1     2   ar
     5     2     3   ar
     6     3     4   ar
     7     4     7    1
     8     7     9    1
     9     9    10   ar
    10    10    11   ar
    11    11    12   ar
    12    12    13   ar
    13    13    14   ar
    14    14    15   ar
    15    15    16   ar
    16    16    17   ar
    17     4     5   ar
    18     5     6   ar
    19    18    19    1
    20    19    20   ar
    21    20    21   ar
    22    21    22   ar
    23    22    23   ar
    24    25    26    1
    25    26    27    1
    26    26    28    1
    27     6     1   ar
    28    23    19   ar
    29    17     9   ar
    30    16    11   ar
    31     7     8    1
@<TRIPOS>MOLECULE
*****
 28 31 0 0 0
SMALL
GASTEIGER

@<TRIPOS>ATOM
      1 C          65.0196   91.9330   11.8939 C.ar    1  UNL1       -0.0004
      2 C          64.6396   90.9548   12.9656 C.ar    1  UNL1       -0.0011
      3 C          63.5632   89.9420   12.7092 C.ar    1  UNL1        0.0144
      4 C          62.8667   89.9076   11.3812 C.ar    1  UNL1        0.0497
      5 C          63.2468   90.8859   10.3094 C.ar    1  UNL1        0.0144
      6 C          64.3232   91.8986   10.5658 C.ar    1  UNL1       -0.0011
      7 N          61.7903   88.8949   11.1248 N.pl3   1  UNL1       -0.2927
      8 H          60.8578   89.1871   11.0059 H       1  UNL1        0.1541
      9 C          62.1348   87.4369   11.0496 C.ar    1  UNL1        0.1635
     10 N          62.1639   86.4773   12.2020 N.ar    1  UNL1       -0.2240
     11 C          62.5577   85.1298   11.6735 C.ar    1  UNL1        0.0892
     12 C          62.7489   83.8038   12.3479 C.ar    1  UNL1        0.0197
     13 C          63.1543   82.6046   11.5432 C.ar    1  UNL1        0.0016
     14 C          63.3685   82.7315   10.0640 C.ar    1  UNL1        0.0006
     15 C          63.1773   84.0576    9.3896 C.ar    1  UNL1        0.0081
     16 C          62.7719   85.2567   10.1943 C.ar    1  UNL1        0.0497
     17 S          62.5105   86.6826    9.8087 S.2     1  UNL1       -0.0515
     18 C          66.0960   92.9458   12.1502 C.3     1  UNL1        0.1240
     19 N          66.8681   92.9106   13.4358 N.ar    1  UNL1       -0.3045
     20 C          66.6497   93.8046   14.6203 C.ar    1  UNL1        0.0983
     21 C          67.6408   93.4217   15.6791 C.ar    1  UNL1        0.1193
     22 N          68.4718   92.2910   15.1490 N.ar    1  UNL1       -0.2223
     23 C          67.9943   91.9751   13.7626 C.ar    1  UNL1        0.1788
     24 C          65.7276   95.3325   11.1923 C.3     1  UNL1        0.0197
     25 C          66.4003   93.9937   11.1211 C.3     1  UNL1        0.0827
     26 N          67.3774   93.7029   10.0207 N.3     1  UNL1       -0.2696
     27 C          67.7125   94.7644    9.0153 C.3     1  UNL1        0.0897
     28 C          68.0193   92.3505    9.9257 C.3     1  UNL1        0.0897
@<TRIPOS>BOND
     1    25    24    1
     2    25    18    1
     3    18     1    1
     4     1     2   ar
     5     2     3   ar
     6     3     4   ar
     7     4     7    1
     8     7     9    1
     9     9    10   ar
    10    10    11   ar
    11    11    12   ar
    12    12    13   ar
    13    13    14   ar
    14    14    15   ar
    15    15    16   ar
    16    16    17   ar
    17     4     5   ar
    18     5     6   ar
    19    18    19    1
    20    19    20   ar
    21    20    21   ar
    22    21    22   ar
    23    22    23   ar
    24    25    26    1
    25    26    27    1
    26    26    28    1
    27     6     1   ar
    28    23    19   ar
    29    17     9   ar
    30    16    11   ar
    31     7     8    1
@<TRIPOS>MOLECULE
*****
 28 31 0 0 0
SMALL
GASTEIGER

@<TRIPOS>ATOM
      1 C          65.0758   91.9146   12.2716 C.ar    1  UNL1       -0.0004
      2 C          64.6005   91.0365   13.3910 C.ar    1  UNL1       -0.0011
      3 C          63.3787   90.1853   13.2095 C.ar    1  UNL1        0.0144
      4 C          62.6324   90.2122   11.9087 C.ar    1  UNL1        0.0497
      5 C          63.1077   91.0904   10.7893 C.ar    1  UNL1        0.0144
      6 C          64.3294   91.9415   10.9708 C.ar    1  UNL1       -0.0011
      7 N          61.4107   89.3610   11.7272 N.pl3   1  UNL1       -0.2927
      8 H          60.6368   89.4769   12.3246 H       1  UNL1        0.1541
      9 C          61.3681   88.3333   10.6355 C.ar    1  UNL1        0.1635
     10 N          60.1915   88.0293    9.7562 N.ar    1  UNL1       -0.2240
     11 C          60.5908   86.9372    8.8086 C.ar    1  UNL1        0.0892
     12 C          59.8422   86.2326    7.7163 C.ar    1  UNL1        0.0197
     13 C          60.5169   85.1571    6.9177 C.ar    1  UNL1        0.0016
     14 C          61.9404   84.7861    7.2114 C.ar    1  UNL1        0.0006
     15 C          62.6890   85.4906    8.3037 C.ar    1  UNL1        0.0081
     16 C          62.0142   86.5662    9.1023 C.ar    1  UNL1        0.0497
     17 S          62.4946   87.4290   10.2313 S.2     1  UNL1       -0.0515
     18 C          66.2975   92.7658   12.4531 C.3     1  UNL1        0.1240
     19 N          66.5181   93.9589   11.5711 N.ar    1  UNL1       -0.3045
     20 C          67.1169   93.9401   10.1959 C.ar    1  UNL1        0.0983
     21 C          67.1474   95.3499    9.6844 C.ar    1  UNL1        0.1193
     22 N          66.5675   96.2399   10.7433 N.ar    1  UNL1       -0.2223
     23 C          66.1785   95.3802   11.9094 C.ar    1  UNL1        0.1788
     24 C          68.4720   91.5491   13.1884 C.3     1  UNL1        0.0197
     25 C          67.2986   92.4239   13.5165 C.3     1  UNL1        0.0827
     26 N          67.1263   92.9569   14.9080 N.3     1  UNL1       -0.2696
     27 C          65.9020   92.6047   15.6998 C.3     1  UNL1        0.0897
     28 C          68.1783   93.8421   15.5077 C.3     1  UNL1        0.0897
@<TRIPOS>BOND
     1    25    24    1
     2    25    18    1
     3    18     1    1
     4     1     2   ar
     5     2     3   ar
     6     3     4   ar
     7     4     7    1
     8     7     9    1
     9     9    10   ar
    10    10    11   ar
    11    11    12   ar
    12    12    13   ar
    13    13    14   ar
    14    14    15   ar
    15    15    16   ar
    16    16    17   ar
    17     4     5   ar
    18     5     6   ar
    19    18    19    1
    20    19    20   ar
    21    20    21   ar
    22    21    22   ar
    23    22    23   ar
    24    25    26    1
    25    26    27    1
    26    26    28    1
    27     6     1   ar
    28    23    19   ar
    29    17     9   ar
    30    16    11   ar
    31     7     8    1
@<TRIPOS>MOLECULE
*****
 28 31 0 0 0
SMALL
GASTEIGER

@<TRIPOS>ATOM
      1 C          62.4924   88.8261   11.2806 C.ar    1  UNL1       -0.0004
      2 C          63.1781   88.7055   12.6092 C.ar    1  UNL1       -0.0011
      3 C          64.0458   89.8221   13.1096 C.ar    1  UNL1        0.0144
      4 C          64.2276   91.0594   12.2814 C.ar    1  UNL1        0.0497
      5 C          63.5419   91.1801   10.9527 C.ar    1  UNL1        0.0144
      6 C          62.6743   90.0634   10.4524 C.ar    1  UNL1       -0.0011
      7 N          65.0952   92.1761   12.7817 N.pl3   1  UNL1       -0.2927
      8 H          65.2583   92.2780   13.7473 H       1  UNL1        0.1541
      9 C          65.7144   93.1375   11.8110 C.ar    1  UNL1        0.1635
     10 N          65.7806   94.6279   11.9668 N.ar    1  UNL1       -0.2240
     11 C          66.4832   95.1888   10.7661 C.ar    1  UNL1        0.0892
     12 C          66.8353   96.5932   10.3745 C.ar    1  UNL1        0.0197
     13 C          67.5556   96.8539    9.0848 C.ar    1  UNL1        0.0016
     14 C          67.9236   95.7102    8.1868 C.ar    1  UNL1        0.0006
     15 C          67.5714   94.3058    8.5785 C.ar    1  UNL1        0.0081
     16 C          66.8512   94.0451    9.8681 C.ar    1  UNL1        0.0497
     17 S          66.3761   92.7773   10.5139 S.2     1  UNL1       -0.0515
     18 C          61.6248   87.7095   10.7802 C.3     1  UNL1        0.1240
     19 N          62.1667   86.3126   10.7096 N.ar    1  UNL1       -0.3045
     20 C          62.1973   85.3208   11.8347 C.ar    1  UNL1        0.0983
     21 C          62.8227   84.0575   11.3219 C.ar    1  UNL1        0.1193
     22 N          63.1786   84.2684    9.8801 N.ar    1  UNL1       -0.2223
     23 C          62.7732   85.6621    9.5017 C.ar    1  UNL1        0.1788
     24 C          59.1882   88.3950   11.3657 C.3     1  UNL1        0.0197
     25 C          60.2153   87.9897   10.3504 C.3     1  UNL1        0.0827
     26 N          59.8329   87.8648    8.9054 N.3     1  UNL1       -0.2696
     27 C          59.4535   86.5270    8.3429 C.3     1  UNL1        0.0897
     28 C          59.8299   89.0776    8.0228 C.3     1  UNL1        0.0897
@<TRIPOS>BOND
     1    25    24    1
     2    25    18    1
     3    18     1    1
     4     1     2   ar
     5     2     3   ar
     6     3     4   ar
     7     4     7    1
     8     7     9    1
     9     9    10   ar
    10    10    11   ar
    11    11    12   ar
    12    12    13   ar
    13    13    14   ar
    14    14    15   ar
    15    15    16   ar
    16    16    17   ar
    17     4     5   ar
    18     5     6   ar
    19    18    19    1
    20    19    20   ar
    21    20    21   ar
    22    21    22   ar
    23    22    23   ar
    24    25    26    1
    25    26    27    1
    26    26    28    1
    27     6     1   ar
    28    23    19   ar
    29    17     9   ar
    30    16    11   ar
    31     7     8    1
@<TRIPOS>MOLECULE
*****
 28 31 0 0 0
SMALL
GASTEIGER

@<TRIPOS>ATOM
      1 C          64.2826   89.6356   14.9032 C.ar    1  UNL1       -0.0004
      2 C          64.7332   88.4203   14.1483 C.ar    1  UNL1       -0.0011
      3 C          64.3189   87.0544   14.6097 C.ar    1  UNL1        0.0144
      4 C          63.4540   86.9039   15.8260 C.ar    1  UNL1        0.0497
      5 C          63.0034   88.1193   16.5808 C.ar    1  UNL1        0.0144
      6 C          63.4176   89.4851   16.1195 C.ar    1  UNL1       -0.0011
      7 N          63.0398   85.5381   16.2874 N.pl3   1  UNL1       -0.2927
      8 H          62.8246   85.3831   17.2355 H       1  UNL1        0.1541
      9 C          62.9533   84.4085   15.3042 C.ar    1  UNL1        0.1635
     10 N          62.7372   82.9625   15.6394 N.ar    1  UNL1       -0.2240
     11 C          62.7181   82.1869   14.3556 C.ar    1  UNL1        0.0892
     12 C          62.5411   80.7253   14.0686 C.ar    1  UNL1        0.0197
     13 C          62.5683   80.2305   12.6529 C.ar    1  UNL1        0.0016
     14 C          62.7726   81.1971   11.5242 C.ar    1  UNL1        0.0006
     15 C          62.9496   82.6587   11.8113 C.ar    1  UNL1        0.0081
     16 C          62.9224   83.1536   13.2270 C.ar    1  UNL1        0.0497
     17 S          63.0677   84.5266   13.8133 S.2     1  UNL1       -0.0515
     18 C          64.6968   91.0015   14.4418 C.3     1  UNL1        0.1240
     19 N          64.4867   91.4062   13.0128 N.ar    1  UNL1       -0.3045
     20 C          63.3581   90.9654   12.1284 C.ar    1  UNL1        0.0983
     21 C          63.5423   91.6095   10.7863 C.ar    1  UNL1        0.1193
     22 N          64.7846   92.4482   10.8411 N.ar    1  UNL1       -0.2223
     23 C          65.3683   92.3225   12.2172 C.ar    1  UNL1        0.1788
     24 C          64.5620   92.4007   16.6267 C.3     1  UNL1        0.0197
     25 C          65.3211   91.9627   15.4094 C.3     1  UNL1        0.0827
     26 N          66.7046   92.4858   15.1598 N.3     1  UNL1       -0.2696
     27 C          67.8954   91.6117   15.4205 C.3     1  UNL1        0.0897
     28 C          66.8973   93.8831   14.6495 C.3     1  UNL1        0.0897
@<TRIPOS>BOND
     1    25    24    1
     2    25    18    1
     3    18     1    1
     4     1     2   ar
     5     2     3   ar
     6     3     4   ar
     7     4     7    1
     8     7     9    1
     9     9    10   ar
    10    10    11   ar
    11    11    12   ar
    12    12    13   ar
    13    13    14   ar
    14    14    15   ar
    15    15    16   ar
    16    16    17   ar
    17     4     5   ar
    18     5     6   ar
    19    18    19    1
    20    19    20   ar
    21    20    21   ar
    22    21    22   ar
    23    22    23   ar
    24    25    26    1
    25    26    27    1
    26    26    28    1
    27     6     1   ar
    28    23    19   ar
    29    17     9   ar
    30    16    11   ar
    31     7     8    1
@<TRIPOS>MOLECULE
*****
 28 31 0 0 0
SMALL
GASTEIGER

@<TRIPOS>ATOM
      1 C          62.7538   88.8012   11.7670 C.ar    1  UNL1       -0.0004
      2 C          63.0213   89.9374   10.8250 C.ar    1  UNL1       -0.0011
      3 C          63.9545   91.0410   11.2268 C.ar    1  UNL1        0.0144
      4 C          64.6201   91.0083   12.5706 C.ar    1  UNL1        0.0497
      5 C          64.3526   89.8720   13.5126 C.ar    1  UNL1        0.0144
      6 C          63.4195   88.7685   13.1108 C.ar    1  UNL1       -0.0011
      7 N          65.5533   92.1118   12.9724 N.pl3   1  UNL1       -0.2927
      8 H          65.8435   92.1942   13.9095 H       1  UNL1        0.1541
      9 C          66.0442   93.0897   11.9464 C.ar    1  UNL1        0.1635
     10 N          66.5956   92.7467   10.5943 N.ar    1  UNL1       -0.2240
     11 C          66.9621   94.0274    9.9046 C.ar    1  UNL1        0.0892
     12 C          67.5496   94.3070    8.5531 C.ar    1  UNL1        0.0197
     13 C          67.8123   95.7212    8.1276 C.ar    1  UNL1        0.0016
     14 C          67.4875   96.8557    9.0536 C.ar    1  UNL1        0.0006
     15 C          66.8999   96.5760   10.4050 C.ar    1  UNL1        0.0081
     16 C          66.6372   95.1619   10.8306 C.ar    1  UNL1        0.0497
     17 S          66.0699   94.5824   12.0925 S.2     1  UNL1       -0.0515
     18 C          61.8206   87.6976   11.3652 C.3     1  UNL1        0.1240
     19 N          62.2834   86.2714   11.4078 N.ar    1  UNL1       -0.3045
     20 C          62.6226   85.4187   10.2212 C.ar    1  UNL1        0.0983
     21 C          63.0370   84.0678   10.7246 C.ar    1  UNL1        0.1193
     22 N          62.9540   84.0856   12.2222 N.ar    1  UNL1       -0.2223
     23 C          62.4882   85.4475   12.6444 C.ar    1  UNL1        0.1788
     24 C          59.8138   87.2779    9.7695 C.3     1  UNL1        0.0197
     25 C          60.4248   88.0203   10.9208 C.3     1  UNL1        0.0827
     26 N          59.6400   89.0853   11.6278 N.3     1  UNL1       -0.2696
     27 C          59.5714   90.4704   11.0563 C.3     1  UNL1        0.0897
     28 C          58.9237   88.7652   12.9062 C.3     1  UNL1        0.0897
@<TRIPOS>BOND
     1    25    24    1
     2    25    18    1
     3    18     1    1
     4     1     2   ar
     5     2     3   ar
     6     3     4   ar
     7     4     7    1
     8     7     9    1
     9     9    10   ar
    10    10    11   ar
    11    11    12   ar
    12    12    13   ar
    13    13    14   ar
    14    14    15   ar
    15    15    16   ar
    16    16    17   ar
    17     4     5   ar
    18     5     6   ar
    19    18    19    1
    20    19    20   ar
    21    20    21   ar
    22    21    22   ar
    23    22    23   ar
    24    25    26    1
    25    26    27    1
    26    26    28    1
    27     6     1   ar
    28    23    19   ar
    29    17     9   ar
    30    16    11   ar
    31     7     8    1
@<TRIPOS>MOLECULE
*****
 28 31 0 0 0
SMALL
GASTEIGER

@<TRIPOS>ATOM
      1 C          65.3588   91.7753   12.0882 C.ar    1  UNL1       -0.0004
      2 C          65.1080   90.8531   13.2443 C.ar    1  UNL1       -0.0011
      3 C          64.0073   89.8368   13.1679 C.ar    1  UNL1        0.0144
      4 C          63.1575   89.7429   11.9355 C.ar    1  UNL1        0.0497
      5 C          63.4084   90.6651   10.7793 C.ar    1  UNL1        0.0144
      6 C          64.5090   91.6814   10.8558 C.ar    1  UNL1       -0.0011
      7 N          62.0569   88.7266   11.8590 N.pl3   1  UNL1       -0.2927
      8 H          61.1229   89.0195   11.7529 H       1  UNL1        0.1541
      9 C          62.3791   87.2642   11.9443 C.ar    1  UNL1        0.1635
     10 N          63.2218   86.6069   12.9969 N.ar    1  UNL1       -0.2240
     11 C          63.2788   85.1387   12.6951 C.ar    1  UNL1        0.0892
     12 C          63.9616   83.9972   13.3885 C.ar    1  UNL1        0.0197
     13 C          63.8369   82.6056   12.8428 C.ar    1  UNL1        0.0016
     14 C          63.0294   82.3555   11.6037 C.ar    1  UNL1        0.0006
     15 C          62.3466   83.4969   10.9103 C.ar    1  UNL1        0.0081
     16 C          62.4713   84.8885   11.4560 C.ar    1  UNL1        0.0497
     17 S          61.9153   86.2021   10.9920 S.2     1  UNL1       -0.0515
     18 C          66.4595   92.7916   12.1646 C.3     1  UNL1        0.1240
     19 N          66.3657   94.0600   11.3693 N.ar    1  UNL1       -0.3045
     20 C          66.0123   95.4145   11.9082 C.ar    1  UNL1        0.0983
     21 C          66.0370   96.3881   10.7673 C.ar    1  UNL1        0.1193
     22 N          66.4056   95.6353    9.5234 N.ar    1  UNL1       -0.2223
     23 C          66.6088   94.1965    9.8954 C.ar    1  UNL1        0.1788
     24 C          68.8252   91.7716   12.4996 C.3     1  UNL1        0.0197
     25 C          67.6539   92.5396   13.0363 C.3     1  UNL1        0.0827
     26 N          67.6769   93.0555   14.4446 N.3     1  UNL1       -0.2696
     27 C          68.9400   92.9810   15.2500 C.3     1  UNL1        0.0897
     28 C          66.4367   93.6458   15.0474 C.3     1  UNL1        0.0897
@<TRIPOS>BOND
     1    25    24    1
     2    25    18    1
     3    18     1    1
     4     1     2   ar
     5     2     3   ar
     6     3     4   ar
     7     4     7    1
     8     7     9    1
     9     9    10   ar
    10    10    11   ar
    11    11    12   ar
    12    12    13   ar
    13    13    14   ar
    14    14    15   ar
    15    15    16   ar
    16    16    17   ar
    17     4     5   ar
    18     5     6   ar
    19    18    19    1
    20    19    20   ar
    21    20    21   ar
    22    21    22   ar
    23    22    23   ar
    24    25    26    1
    25    26    27    1
    26    26    28    1
    27     6     1   ar
    28    23    19   ar
    29    17     9   ar
    30    16    11   ar
    31     7     8    1
@<TRIPOS>MOLECULE
*****
 28 31 0 0 0
SMALL
GASTEIGER

@<TRIPOS>ATOM
      1 C          62.4609   87.6109   10.5349 C.ar    1  UNL1       -0.0004
      2 C          62.3705   88.8547    9.7014 C.ar    1  UNL1       -0.0011
      3 C          62.6784   90.1902   10.3112 C.ar    1  UNL1        0.0144
      4 C          63.0767   90.2818   11.7544 C.ar    1  UNL1        0.0497
      5 C          63.1671   89.0379   12.5879 C.ar    1  UNL1        0.0144
      6 C          62.8593   87.7025   11.9782 C.ar    1  UNL1       -0.0011
      7 N          63.3846   91.6172   12.3642 N.pl3   1  UNL1       -0.2927
      8 H          62.7510   92.3636   12.2604 H       1  UNL1        0.1541
      9 C          64.6578   91.8155   13.1320 C.ar    1  UNL1        0.1635
     10 N          64.7742   91.9836   14.6180 N.ar    1  UNL1       -0.2240
     11 C          66.2265   92.1525   14.9531 C.ar    1  UNL1        0.0892
     12 C          66.9385   92.3560   16.2575 C.ar    1  UNL1        0.0197
     13 C          68.4317   92.4959   16.2830 C.ar    1  UNL1        0.0016
     14 C          69.2129   92.4323   15.0041 C.ar    1  UNL1        0.0006
     15 C          68.5009   92.2288   13.6996 C.ar    1  UNL1        0.0081
     16 C          67.0077   92.0889   13.6742 C.ar    1  UNL1        0.0497
     17 S          66.0382   91.8806   12.5487 S.2     1  UNL1       -0.0515
     18 C          62.1530   86.2754    9.9252 C.3     1  UNL1        0.1240
     19 N          62.7578   85.0300   10.5025 N.ar    1  UNL1       -0.3045
     20 C          63.7349   84.1235    9.8142 C.ar    1  UNL1        0.0983
     21 C          64.0727   83.0057   10.7558 C.ar    1  UNL1        0.1193
     22 N          63.3044   83.2214   12.0259 N.ar    1  UNL1       -0.2223
     23 C          62.4918   84.4725   11.8694 C.ar    1  UNL1        0.1788
     24 C          61.6737   85.4342    7.5143 C.3     1  UNL1        0.0197
     25 C          61.2404   86.1853    8.7383 C.3     1  UNL1        0.0827
     26 N          59.8944   86.8463    8.7752 N.3     1  UNL1       -0.2696
     27 C          59.4587   87.5926   10.0013 C.3     1  UNL1        0.0897
     28 C          58.9840   86.7611    7.5861 C.3     1  UNL1        0.0897
@<TRIPOS>BOND
     1    25    24    1
     2    25    18    1
     3    18     1    1
     4     1     2   ar
     5     2     3   ar
     6     3     4   ar
     7     4     7    1
     8     7     9    1
     9     9    10   ar
    10    10    11   ar
    11    11    12   ar
    12    12    13   ar
    13    13    14   ar
    14    14    15   ar
    15    15    16   ar
    16    16    17   ar
    17     4     5   ar
    18     5     6   ar
    19    18    19    1
    20    19    20   ar
    21    20    21   ar
    22    21    22   ar
    23    22    23   ar
    24    25    26    1
    25    26    27    1
    26    26    28    1
    27     6     1   ar
    28    23    19   ar
    29    17     9   ar
    30    16    11   ar
    31     7     8    1
