@<TRIPOS>MOLECULE
*****
 28 30 0 0 0
SMALL
GASTEIGER

@<TRIPOS>ATOM
      1 C          64.6896   91.4643   12.4711 C.ar    1  UNL1        0.0383
      2 C          63.4781   90.5895   12.3408 C.ar    1  UNL1        0.1051
      3 N          63.1026   89.6576   13.4546 N.ar    1  UNL1       -0.1924
      4 C          63.9387   89.6004   14.6986 C.ar    1  UNL1        0.3246
      5 N          65.1502   90.4752   14.8289 N.ar    1  UNL1       -0.1924
      6 C          65.5256   91.4071   13.7151 C.ar    1  UNL1        0.1051
      7 C          66.5102   92.6719   11.0650 C.2     1  UNL1       -0.0068
      8 C          65.0650   92.3962   11.3573 C.2     1  UNL1        0.0002
      9 C          66.8856   93.6039    9.9512 C.3     1  UNL1        0.0939
     10 C          68.2348   93.4948    9.3047 C.3     1  UNL1        0.0262
     11 C          64.6095   96.8544    9.8979 C.3     1  UNL1        0.0946
     12 C          65.5831   95.8134   10.3651 C.2     1  UNL1        0.2232
     13 O          66.2278   95.9409   11.7134 O.2     1  UNL1       -0.2751
     14 N          65.9120   94.6449    9.4840 N.am    1  UNL1       -0.3022
     15 H          65.4888   94.5612    8.5990 H       1  UNL1        0.1497
     16 O          63.5632   88.6685   15.8124 O.3     1  UNL1       -0.4214
     17 C          63.6603   87.1849   15.6138 C.ar    1  UNL1        0.1593
     18 C          64.2669   86.6345   14.3572 C.ar    1  UNL1        0.0416
     19 C          64.3639   85.1509   14.1586 C.ar    1  UNL1        0.0401
     20 C          63.8543   84.2176   15.2165 C.ar    1  UNL1        0.1396
     21 C          63.2477   84.7679   16.4731 C.ar    1  UNL1        0.0514
     22 C          63.1506   86.2516   16.6718 C.ar    1  UNL1        0.0952
     23 CL         62.5440   86.8020   17.9284 Cl      1  UNL1       -0.0790
     24 O          63.9514   82.7339   15.0179 O.3     1  UNL1       -0.4754
     25 C          63.1039   82.0591   13.9804 C.3     1  UNL1        0.2053
     26 C          63.4883   82.1353   12.5326 C.3     1  UNL1        0.0438
     27 C          64.4209   82.6137   11.4596 C.3     1  UNL1        0.0038
     28 C          63.2215   81.7889   11.0977 C.3     1  UNL1        0.0038
@<TRIPOS>BOND
     1    11    12    1
     2    12    13    2
     3    12    14   am
     4    14     9    1
     5     9    10    1
     6     9     7    1
     7     7     8    2
     8     8     1    1
     9     1     2   ar
    10     2     3   ar
    11     3     4   ar
    12     4    16    1
    13    16    17    1
    14    17    18   ar
    15    18    19   ar
    16    19    20   ar
    17    20    24    1
    18    24    25    1
    19    25    26    1
    20    26    27    1
    21    27    28    1
    22    20    21   ar
    23    21    22   ar
    24    22    23    1
    25     4     5   ar
    26     5     6   ar
    27     6     1   ar
    28    22    17   ar
    29    28    26    1
    30    14    15    1
@<TRIPOS>MOLECULE
*****
 28 30 0 0 0
SMALL
GASTEIGER

@<TRIPOS>ATOM
      1 C          63.5438   90.8197   11.8295 C.ar    1  UNL1        0.0383
      2 C          62.9598   90.7484   10.4497 C.ar    1  UNL1        0.1051
      3 N          62.3765   89.4608    9.9478 N.ar    1  UNL1       -0.1924
      4 C          62.3773   88.2445   10.8257 C.ar    1  UNL1        0.3246
      5 N          62.9613   88.3159   12.2054 N.ar    1  UNL1       -0.1924
      6 C          63.5445   89.6035   12.7073 C.ar    1  UNL1        0.1051
      7 C          65.5628   92.4396   12.0519 C.2     1  UNL1       -0.0068
      8 C          64.1271   92.1073   12.3314 C.2     1  UNL1        0.0002
      9 C          66.1461   93.7272   12.5538 C.3     1  UNL1        0.0939
     10 C          66.3559   94.8738   11.6098 C.3     1  UNL1        0.0262
     11 C          68.0511   93.2335   16.0001 C.3     1  UNL1        0.0946
     12 C          67.6776   93.0925   14.5543 C.2     1  UNL1        0.2232
     13 O          68.4621   92.1760   13.6629 O.2     1  UNL1       -0.2751
     14 N          66.5196   93.8681   13.9997 N.am    1  UNL1       -0.3022
     15 H          66.0047   94.4696   14.5847 H       1  UNL1        0.1497
     16 O          61.7940   86.9569   10.3238 O.3     1  UNL1       -0.4214
     17 C          62.4143   85.6490   10.7168 C.ar    1  UNL1        0.1593
     18 C          62.3827   85.2043   12.1491 C.ar    1  UNL1        0.0416
     19 C          63.0030   83.8964   12.5421 C.ar    1  UNL1        0.0401
     20 C          63.6549   83.0331   11.5030 C.ar    1  UNL1        0.1396
     21 C          63.6865   83.4778   10.0708 C.ar    1  UNL1        0.0514
     22 C          63.0661   84.7857    9.6776 C.ar    1  UNL1        0.0952
     23 CL         63.0977   85.2304    8.2454 Cl      1  UNL1       -0.0790
     24 O          64.2752   81.7251   11.8961 O.3     1  UNL1       -0.4754
     25 C          63.9815   81.1300   13.2412 C.3     1  UNL1        0.2053
     26 C          62.5659   80.8280   13.6348 C.3     1  UNL1        0.0438
     27 C          61.4372   79.8502   13.7758 C.3     1  UNL1        0.0038
     28 C          61.2427   81.2828   14.1754 C.3     1  UNL1        0.0038
@<TRIPOS>BOND
     1    11    12    1
     2    12    13    2
     3    12    14   am
     4    14     9    1
     5     9    10    1
     6     9     7    1
     7     7     8    2
     8     8     1    1
     9     1     2   ar
    10     2     3   ar
    11     3     4   ar
    12     4    16    1
    13    16    17    1
    14    17    18   ar
    15    18    19   ar
    16    19    20   ar
    17    20    24    1
    18    24    25    1
    19    25    26    1
    20    26    27    1
    21    27    28    1
    22    20    21   ar
    23    21    22   ar
    24    22    23    1
    25     4     5   ar
    26     5     6   ar
    27     6     1   ar
    28    22    17   ar
    29    28    26    1
    30    14    15    1
@<TRIPOS>MOLECULE
*****
 28 30 0 0 0
SMALL
GASTEIGER

@<TRIPOS>ATOM
      1 C          63.2188   86.5723   12.6875 C.ar    1  UNL1        0.0383
      2 C          63.9751   86.5969   13.9826 C.ar    1  UNL1        0.1051
      3 N          64.3555   87.9080   14.6042 N.ar    1  UNL1       -0.1924
      4 C          63.9796   89.1944   13.9307 C.ar    1  UNL1        0.3246
      5 N          63.2233   89.1698   12.6356 N.ar    1  UNL1       -0.1924
      6 C          62.8429   87.8588   12.0140 C.ar    1  UNL1        0.1051
      7 C          63.7429   84.0732   12.2083 C.2     1  UNL1       -0.0068
      8 C          62.8385   85.2613   12.0658 C.2     1  UNL1        0.0002
      9 C          63.3626   82.7621   11.5867 C.3     1  UNL1        0.0939
     10 C          64.1425   82.2305   10.4209 C.3     1  UNL1        0.0262
     11 C          61.0573   80.7308   14.0985 C.3     1  UNL1        0.0946
     12 C          62.2176   81.5103   13.5544 C.2     1  UNL1        0.2232
     13 O          63.3933   81.8172   14.4339 O.2     1  UNL1       -0.2751
     14 N          62.2022   81.9827   12.1308 N.am    1  UNL1       -0.3022
     15 H          61.4306   81.7812   11.5536 H       1  UNL1        0.1497
     16 O          64.3600   90.5055   14.5524 O.3     1  UNL1       -0.4214
     17 C          64.9684   91.5867   13.7094 C.ar    1  UNL1        0.1593
     18 C          64.5492   91.7473   12.2781 C.ar    1  UNL1        0.0416
     19 C          65.1576   92.8285   11.4351 C.ar    1  UNL1        0.0401
     20 C          66.1853   93.7493   12.0234 C.ar    1  UNL1        0.1396
     21 C          66.6046   93.5888   13.4546 C.ar    1  UNL1        0.0514
     22 C          65.9961   92.5075   14.2976 C.ar    1  UNL1        0.0952
     23 CL         66.4154   92.3470   15.7288 Cl      1  UNL1       -0.0790
     24 O          66.7938   94.8306   11.1803 O.3     1  UNL1       -0.4754
     25 C          67.2483   94.5263    9.7836 C.3     1  UNL1        0.2053
     26 C          67.9545   93.2362    9.4890 C.3     1  UNL1        0.0438
     27 C          68.7596   92.3792    8.5577 C.3     1  UNL1        0.0038
     28 C          68.3728   91.8586    9.9102 C.3     1  UNL1        0.0038
@<TRIPOS>BOND
     1    11    12    1
     2    12    13    2
     3    12    14   am
     4    14     9    1
     5     9    10    1
     6     9     7    1
     7     7     8    2
     8     8     1    1
     9     1     2   ar
    10     2     3   ar
    11     3     4   ar
    12     4    16    1
    13    16    17    1
    14    17    18   ar
    15    18    19   ar
    16    19    20   ar
    17    20    24    1
    18    24    25    1
    19    25    26    1
    20    26    27    1
    21    27    28    1
    22    20    21   ar
    23    21    22   ar
    24    22    23    1
    25     4     5   ar
    26     5     6   ar
    27     6     1   ar
    28    22    17   ar
    29    28    26    1
    30    14    15    1
@<TRIPOS>MOLECULE
*****
 28 30 0 0 0
SMALL
GASTEIGER

@<TRIPOS>ATOM
      1 C          63.5013   85.1838   12.7654 C.ar    1  UNL1        0.0383
      2 C          62.5899   85.6783   11.6815 C.ar    1  UNL1        0.1051
      3 N          62.2465   87.1361   11.5975 N.ar    1  UNL1       -0.1924
      4 C          62.8143   88.0993   12.5973 C.ar    1  UNL1        0.3246
      5 N          63.7257   87.6048   13.6812 N.ar    1  UNL1       -0.1924
      6 C          64.0691   86.1470   13.7653 C.ar    1  UNL1        0.1051
      7 C          62.7563   82.7075   13.0164 C.2     1  UNL1       -0.0068
      8 C          63.8447   83.7261   12.8495 C.2     1  UNL1        0.0002
      9 C          63.0998   81.2498   13.1004 C.3     1  UNL1        0.0939
     10 C          63.9032   80.7341   14.2575 C.3     1  UNL1        0.0262
     11 C          62.6464   79.5535    9.5414 C.3     1  UNL1        0.0946
     12 C          63.1063   80.4954   10.6143 C.2     1  UNL1        0.2232
     13 O          64.0326   81.6250   10.2739 O.2     1  UNL1       -0.2751
     14 N          62.6399   80.3078   12.0276 N.am    1  UNL1       -0.3022
     15 H          62.0319   79.5664   12.2509 H       1  UNL1        0.1497
     16 O          62.4709   89.5570   12.5132 O.3     1  UNL1       -0.4214
     17 C          63.5614   90.5779   12.3774 C.ar    1  UNL1        0.1593
     18 C          64.4776   90.8549   13.5324 C.ar    1  UNL1        0.0416
     19 C          65.5682   91.8757   13.3965 C.ar    1  UNL1        0.0401
     20 C          65.7426   92.6196   12.1057 C.ar    1  UNL1        0.1396
     21 C          64.8265   92.3427   10.9508 C.ar    1  UNL1        0.0514
     22 C          63.7358   91.3218   11.0866 C.ar    1  UNL1        0.0952
     23 CL         62.8197   91.0448    9.9316 Cl      1  UNL1       -0.0790
     24 O          66.8332   93.6406   11.9699 O.3     1  UNL1       -0.4754
     25 C          66.5737   94.9219   11.2346 C.3     1  UNL1        0.2053
     26 C          67.0598   95.0897    9.8256 C.3     1  UNL1        0.0438
     27 C          67.5369   94.4904    8.5360 C.3     1  UNL1        0.0038
     28 C          67.4248   95.9797    8.6746 C.3     1  UNL1        0.0038
@<TRIPOS>BOND
     1    11    12    1
     2    12    13    2
     3    12    14   am
     4    14     9    1
     5     9    10    1
     6     9     7    1
     7     7     8    2
     8     8     1    1
     9     1     2   ar
    10     2     3   ar
    11     3     4   ar
    12     4    16    1
    13    16    17    1
    14    17    18   ar
    15    18    19   ar
    16    19    20   ar
    17    20    24    1
    18    24    25    1
    19    25    26    1
    20    26    27    1
    21    27    28    1
    22    20    21   ar
    23    21    22   ar
    24    22    23    1
    25     4     5   ar
    26     5     6   ar
    27     6     1   ar
    28    22    17   ar
    29    28    26    1
    30    14    15    1
@<TRIPOS>MOLECULE
*****
 28 30 0 0 0
SMALL
GASTEIGER

@<TRIPOS>ATOM
      1 C          59.7230   92.0095    4.0992 C.ar    1  UNL1        0.0383
      2 C          58.2852   91.8682    4.5024 C.ar    1  UNL1        0.1051
      3 N          57.8943   90.8654    5.5472 N.ar    1  UNL1       -0.1924
      4 C          58.9412   90.0039    6.1888 C.ar    1  UNL1        0.3246
      5 N          60.3791   90.1452    5.7856 N.ar    1  UNL1       -0.1924
      6 C          60.7700   91.1480    4.7408 C.ar    1  UNL1        0.1051
      7 C          61.3410   92.7879    2.2213 C.2     1  UNL1       -0.0068
      8 C          60.1139   93.0122    3.0543 C.2     1  UNL1        0.0002
      9 C          61.7319   93.7906    1.1765 C.3     1  UNL1        0.0939
     10 C          61.3613   93.5614   -0.2589 C.3     1  UNL1        0.0262
     11 C          64.7533   96.2613    1.8948 C.3     1  UNL1        0.0946
     12 C          63.9919   95.0294    1.5043 C.2     1  UNL1        0.2232
     13 O          64.7292   93.8042    1.0512 O.2     1  UNL1       -0.2751
     14 N          62.4933   95.0226    1.5670 N.am    1  UNL1       -0.3022
     15 H          62.0094   95.8267    1.8644 H       1  UNL1        0.1497
     16 O          58.5504   89.0012    7.2336 O.3     1  UNL1       -0.4214
     17 C          59.5895   88.1043    7.8384 C.ar    1  UNL1        0.1593
     18 C          59.7927   86.7203    7.2969 C.ar    1  UNL1        0.0416
     19 C          60.8319   85.8234    7.9017 C.ar    1  UNL1        0.0401
     20 C          61.6679   86.3106    9.0479 C.ar    1  UNL1        0.1396
     21 C          61.4647   87.6945    9.5894 C.ar    1  UNL1        0.0514
     22 C          60.4255   88.5915    8.9846 C.ar    1  UNL1        0.0952
     23 CL         60.2223   89.9755    9.5261 Cl      1  UNL1       -0.0790
     24 O          62.7071   85.4136    9.6527 O.3     1  UNL1       -0.4754
     25 C          62.5028   84.8496   11.0275 C.3     1  UNL1        0.2053
     26 C          63.0815   83.5122   11.3830 C.3     1  UNL1        0.0438
     27 C          64.2388   82.5580   11.3906 C.3     1  UNL1        0.0038
     28 C          62.9264   82.1498   11.9912 C.3     1  UNL1        0.0038
@<TRIPOS>BOND
     1    11    12    1
     2    12    13    2
     3    12    14   am
     4    14     9    1
     5     9    10    1
     6     9     7    1
     7     7     8    2
     8     8     1    1
     9     1     2   ar
    10     2     3   ar
    11     3     4   ar
    12     4    16    1
    13    16    17    1
    14    17    18   ar
    15    18    19   ar
    16    19    20   ar
    17    20    24    1
    18    24    25    1
    19    25    26    1
    20    26    27    1
    21    27    28    1
    22    20    21   ar
    23    21    22   ar
    24    22    23    1
    25     4     5   ar
    26     5     6   ar
    27     6     1   ar
    28    22    17   ar
    29    28    26    1
    30    14    15    1
@<TRIPOS>MOLECULE
*****
 28 30 0 0 0
SMALL
GASTEIGER

@<TRIPOS>ATOM
      1 C          61.5051   88.0740   11.0806 C.ar    1  UNL1        0.0383
      2 C          61.3038   89.5459   11.2872 C.ar    1  UNL1        0.1051
      3 N          62.2319   90.3114   12.1831 N.ar    1  UNL1       -0.1924
      4 C          63.3614   89.6049   12.8723 C.ar    1  UNL1        0.3246
      5 N          63.5628   88.1330   12.6657 N.ar    1  UNL1       -0.1924
      6 C          62.6346   87.3675   11.7698 C.ar    1  UNL1        0.1051
      7 C          60.8477   87.2350    8.7112 C.2     1  UNL1       -0.0068
      8 C          60.5770   87.3085   10.1847 C.2     1  UNL1        0.0002
      9 C          59.9196   86.4696    7.8153 C.3     1  UNL1        0.0939
     10 C          58.4353   86.6324    7.9583 C.3     1  UNL1        0.0262
     11 C          62.4303   84.0879    5.8727 C.3     1  UNL1        0.0946
     12 C          61.8742   85.0161    6.9115 C.2     1  UNL1        0.2232
     13 O          62.7167   85.4191    8.0853 O.2     1  UNL1       -0.2751
     14 N          60.4757   85.5414    6.7765 N.am    1  UNL1       -0.3022
     15 H          59.9228   85.2769    6.0061 H       1  UNL1        0.1497
     16 O          64.2896   90.3704   13.7682 O.3     1  UNL1       -0.4214
     17 C          64.9615   91.6137   13.2655 C.ar    1  UNL1        0.1593
     18 C          64.8313   92.0059   11.8235 C.ar    1  UNL1        0.0416
     19 C          65.5032   93.2492   11.3209 C.ar    1  UNL1        0.0401
     20 C          66.3052   94.1004   12.2602 C.ar    1  UNL1        0.1396
     21 C          66.4354   93.7082   13.7021 C.ar    1  UNL1        0.0514
     22 C          65.7635   92.4648   14.2048 C.ar    1  UNL1        0.0952
     23 CL         65.8937   92.0727   15.6467 Cl      1  UNL1       -0.0790
     24 O          66.9771   95.3438   11.7574 O.3     1  UNL1       -0.4754
     25 C          66.3198   96.1744   10.6955 C.3     1  UNL1        0.2053
     26 C          66.7810   96.0736    9.2718 C.3     1  UNL1        0.0438
     27 C          67.0946   96.7269    7.9585 C.3     1  UNL1        0.0038
     28 C          67.2664   95.2455    8.1191 C.3     1  UNL1        0.0038
@<TRIPOS>BOND
     1    11    12    1
     2    12    13    2
     3    12    14   am
     4    14     9    1
     5     9    10    1
     6     9     7    1
     7     7     8    2
     8     8     1    1
     9     1     2   ar
    10     2     3   ar
    11     3     4   ar
    12     4    16    1
    13    16    17    1
    14    17    18   ar
    15    18    19   ar
    16    19    20   ar
    17    20    24    1
    18    24    25    1
    19    25    26    1
    20    26    27    1
    21    27    28    1
    22    20    21   ar
    23    21    22   ar
    24    22    23    1
    25     4     5   ar
    26     5     6   ar
    27     6     1   ar
    28    22    17   ar
    29    28    26    1
    30    14    15    1
@<TRIPOS>MOLECULE
*****
 28 30 0 0 0
SMALL
GASTEIGER

@<TRIPOS>ATOM
      1 C          59.5941   92.0437    4.1405 C.ar    1  UNL1        0.0383
      2 C          58.1634   91.8667    4.5547 C.ar    1  UNL1        0.1051
      3 N          57.8031   90.8402    5.5874 N.ar    1  UNL1       -0.1924
      4 C          58.8734   89.9907    6.2059 C.ar    1  UNL1        0.3246
      5 N          60.3042   90.1677    5.7916 N.ar    1  UNL1       -0.1924
      6 C          60.6645   91.1942    4.7590 C.ar    1  UNL1        0.1051
      7 C          60.9817   92.7532    2.0617 C.2     1  UNL1       -0.0068
      8 C          59.9545   93.0702    3.1078 C.2     1  UNL1        0.0002
      9 C          61.3420   93.7797    1.0291 C.3     1  UNL1        0.0939
     10 C          61.9121   95.1011    1.4521 C.3     1  UNL1        0.0262
     11 C          59.5744   93.4042   -2.5043 C.3     1  UNL1        0.0946
     12 C          59.7842   93.6991   -1.0486 C.2     1  UNL1        0.2232
     13 O          58.6459   94.2081   -0.2149 O.2     1  UNL1       -0.2751
     14 N          61.1322   93.4849   -0.4266 N.am    1  UNL1       -0.3022
     15 H          61.8793   93.1507   -0.9738 H       1  UNL1        0.1497
     16 O          58.5131   88.9642    7.2386 O.3     1  UNL1       -0.4214
     17 C          59.5771   88.0840    7.8243 C.ar    1  UNL1        0.1593
     18 C          59.8216   86.7197    7.2508 C.ar    1  UNL1        0.0416
     19 C          60.8856   85.8395    7.8365 C.ar    1  UNL1        0.0401
     20 C          61.7052   86.3236    8.9958 C.ar    1  UNL1        0.1396
     21 C          61.4607   87.6878    9.5694 C.ar    1  UNL1        0.0514
     22 C          60.3967   88.5681    8.9836 C.ar    1  UNL1        0.0952
     23 CL         60.1522   89.9323    9.5572 Cl      1  UNL1       -0.0790
     24 O          62.7692   85.4433    9.5816 O.3     1  UNL1       -0.4754
     25 C          62.5840   84.8497   10.9466 C.3     1  UNL1        0.2053
     26 C          63.1648   83.5037   11.2641 C.3     1  UNL1        0.0438
     27 C          63.0414   82.1547   11.9083 C.3     1  UNL1        0.0038
     28 C          64.2945   82.5213   11.1698 C.3     1  UNL1        0.0038
@<TRIPOS>BOND
     1    11    12    1
     2    12    13    2
     3    12    14   am
     4    14     9    1
     5     9    10    1
     6     9     7    1
     7     7     8    2
     8     8     1    1
     9     1     2   ar
    10     2     3   ar
    11     3     4   ar
    12     4    16    1
    13    16    17    1
    14    17    18   ar
    15    18    19   ar
    16    19    20   ar
    17    20    24    1
    18    24    25    1
    19    25    26    1
    20    26    27    1
    21    27    28    1
    22    20    21   ar
    23    21    22   ar
    24    22    23    1
    25     4     5   ar
    26     5     6   ar
    27     6     1   ar
    28    22    17   ar
    29    28    26    1
    30    14    15    1
@<TRIPOS>MOLECULE
*****
 28 30 0 0 0
SMALL
GASTEIGER

@<TRIPOS>ATOM
      1 C          63.0322   85.6934   11.9556 C.ar    1  UNL1        0.0383
      2 C          63.7242   85.9253   13.2660 C.ar    1  UNL1        0.1051
      3 N          63.7770   87.3049   13.8524 N.ar    1  UNL1       -0.1924
      4 C          63.1378   88.4526   13.1284 C.ar    1  UNL1        0.3246
      5 N          62.4458   88.2207   11.8180 N.ar    1  UNL1       -0.1924
      6 C          62.3929   86.8411   11.2316 C.ar    1  UNL1        0.1051
      7 C          63.1388   83.1150   12.2565 C.2     1  UNL1       -0.0068
      8 C          62.9793   84.3138   11.3691 C.2     1  UNL1        0.0002
      9 C          63.0860   81.7354   11.6701 C.3     1  UNL1        0.0939
     10 C          63.7105   81.4642   10.3334 C.3     1  UNL1        0.0262
     11 C          60.9102   79.8287   14.3866 C.3     1  UNL1        0.0946
     12 C          61.5875   80.9371   13.6365 C.2     1  UNL1        0.2232
     13 O          61.4436   82.3554   14.1028 O.2     1  UNL1       -0.2751
     14 N          62.4087   80.6271   12.4202 N.am    1  UNL1       -0.3022
     15 H          62.5031   79.6961   12.1141 H       1  UNL1        0.1497
     16 O          63.1906   89.8322   13.7149 O.3     1  UNL1       -0.4214
     17 C          64.1851   90.8292   13.1982 C.ar    1  UNL1        0.1593
     18 C          65.4297   91.1226   13.9824 C.ar    1  UNL1        0.0416
     19 C          66.4241   92.1196   13.4658 C.ar    1  UNL1        0.0401
     20 C          66.1741   92.8233   12.1648 C.ar    1  UNL1        0.1396
     21 C          64.9296   92.5298   11.3806 C.ar    1  UNL1        0.0514
     22 C          63.9350   91.5328   11.8973 C.ar    1  UNL1        0.0952
     23 CL         62.6905   91.2394   11.1130 Cl      1  UNL1       -0.0790
     24 O          67.1686   93.8203   11.6481 O.3     1  UNL1       -0.4754
     25 C          66.6940   95.0610   10.9515 C.3     1  UNL1        0.2053
     26 C          66.9709   95.2529    9.4899 C.3     1  UNL1        0.0438
     27 C          67.2913   94.6780    8.1420 C.3     1  UNL1        0.0038
     28 C          67.1301   96.1602    8.3061 C.3     1  UNL1        0.0038
@<TRIPOS>BOND
     1    11    12    1
     2    12    13    2
     3    12    14   am
     4    14     9    1
     5     9    10    1
     6     9     7    1
     7     7     8    2
     8     8     1    1
     9     1     2   ar
    10     2     3   ar
    11     3     4   ar
    12     4    16    1
    13    16    17    1
    14    17    18   ar
    15    18    19   ar
    16    19    20   ar
    17    20    24    1
    18    24    25    1
    19    25    26    1
    20    26    27    1
    21    27    28    1
    22    20    21   ar
    23    21    22   ar
    24    22    23    1
    25     4     5   ar
    26     5     6   ar
    27     6     1   ar
    28    22    17   ar
    29    28    26    1
    30    14    15    1
@<TRIPOS>MOLECULE
*****
 28 30 0 0 0
SMALL
GASTEIGER

@<TRIPOS>ATOM
      1 C          45.9632   73.4436   18.3900 C.ar    1  UNL1        0.0383
      2 C          47.0870   73.3963   19.3823 C.ar    1  UNL1        0.1051
      3 N          47.6834   74.6710   19.9013 N.ar    1  UNL1       -0.1924
      4 C          47.1561   75.9930   19.4279 C.ar    1  UNL1        0.3246
      5 N          46.0323   76.0403   18.4355 N.ar    1  UNL1       -0.1924
      6 C          45.4358   74.7656   17.9166 C.ar    1  UNL1        0.1051
      7 C          45.5712   71.7738   16.4385 C.2     1  UNL1       -0.0068
      8 C          45.3667   72.1689   17.8710 C.2     1  UNL1        0.0002
      9 C          44.9748   70.4991   15.9195 C.3     1  UNL1        0.0939
     10 C          44.4029   69.4948   16.8759 C.3     1  UNL1        0.0262
     11 C          45.9441   69.0428   12.3573 C.3     1  UNL1        0.0946
     12 C          45.9687   69.3133   13.8325 C.2     1  UNL1        0.2232
     13 O          47.0121   68.6683   14.6959 O.2     1  UNL1       -0.2751
     14 N          44.9501   70.2287   14.4444 N.am    1  UNL1       -0.3022
     15 H          44.2653   70.6520   13.8777 H       1  UNL1        0.1497
     16 O          47.7526   77.2677   19.9469 O.3     1  UNL1       -0.4214
     17 C          47.0128   78.5625   19.7847 C.ar    1  UNL1        0.1593
     18 C          47.4175   79.5281   18.7105 C.ar    1  UNL1        0.0416
     19 C          46.6778   80.8228   18.5483 C.ar    1  UNL1        0.0401
     20 C          45.5333   81.1520   19.4604 C.ar    1  UNL1        0.1396
     21 C          45.1286   80.1865   20.5345 C.ar    1  UNL1        0.0514
     22 C          45.8684   78.8917   20.6967 C.ar    1  UNL1        0.0952
     23 CL         45.4636   77.9261   21.7709 Cl      1  UNL1       -0.0790
     24 O          44.7935   82.4469   19.2982 O.3     1  UNL1       -0.4754
     25 C          43.6381   82.5363   18.3458 C.3     1  UNL1        0.2053
     26 C          43.8840   82.5354   16.8662 C.3     1  UNL1        0.0438
     27 C          44.5599   81.9497   15.6620 C.3     1  UNL1        0.0038
     28 C          43.6339   83.1195   15.5074 C.3     1  UNL1        0.0038
@<TRIPOS>BOND
     1    11    12    1
     2    12    13    2
     3    12    14   am
     4    14     9    1
     5     9    10    1
     6     9     7    1
     7     7     8    2
     8     8     1    1
     9     1     2   ar
    10     2     3   ar
    11     3     4   ar
    12     4    16    1
    13    16    17    1
    14    17    18   ar
    15    18    19   ar
    16    19    20   ar
    17    20    24    1
    18    24    25    1
    19    25    26    1
    20    26    27    1
    21    27    28    1
    22    20    21   ar
    23    21    22   ar
    24    22    23    1
    25     4     5   ar
    26     5     6   ar
    27     6     1   ar
    28    22    17   ar
    29    28    26    1
    30    14    15    1
