@<TRIPOS>MOLECULE
*****
 23 26 0 0 0
SMALL
GASTEIGER

@<TRIPOS>ATOM
      1 C          62.4812   89.4890   11.7187 C.2     1  UNL1        0.3428
      2 O          61.1661   89.6739   12.4161 O.2     1  UNL1       -0.2448
      3 C          67.5136   93.2465   15.0635 C.3     1  UNL1        0.0268
      4 C          66.4719   92.5437   14.2445 C.2     1  UNL1       -0.0375
      5 C          65.7368   91.3673   14.8153 C.2     1  UNL1       -0.0014
      6 C          64.6951   90.6645   13.9962 C.2     1  UNL1        0.0353
      7 BR         63.9600   89.4881   14.5670 Br      1  UNL1       -0.0490
      8 C          64.3884   91.1381   12.6064 C.2     1  UNL1        0.0278
      9 C          63.4208   90.6488   11.5699 C.2     1  UNL1        0.0963
     10 C          63.5578   91.5227   10.3585 C.2     1  UNL1        0.1049
     11 N          64.6100   92.5522   10.6464 N.2     1  UNL1       -0.2476
     12 C          65.1234   92.3145   12.0356 C.2     1  UNL1        0.0638
     13 C          66.1651   93.0173   12.8546 C.3     1  UNL1        0.0678
     14 O          62.8566   88.1444   11.1700 O.3     1  UNL1       -0.4454
     15 C          61.8349   87.0479   11.1074 C.3     1  UNL1        0.2087
     16 C          61.1783   86.7083    9.8022 C.3     1  UNL1        0.0445
     17 C          61.8985   85.8565    8.7994 C.3     1  UNL1        0.0210
     18 C          61.2418   85.5170    7.4943 C.3     1  UNL1        0.0722
     19 N          59.8648   86.0293    7.1919 N.3     1  UNL1       -0.2727
     20 C          59.1445   86.8811    8.1947 C.3     1  UNL1        0.0722
     21 C          59.8013   87.2207    9.4998 C.3     1  UNL1        0.0210
     22 C          60.1840   86.2418    7.9205 C.3     1  UNL1        0.0722
     23 C          60.7777   86.5488    9.1007 C.3     1  UNL1        0.0210
@<TRIPOS>BOND
     1     3     4    1
     2     4     5    2
     3     5     6    1
     4     6     7    1
     5     6     8    2
     6     8     9    1
     7     9     1    1
     8     1     2    2
     9     1    14    1
    10    14    15    1
    11    15    16    1
    12    16    17    1
    13    17    18    1
    14    18    19    1
    15    19    20    1
    16    20    21    1
    17    19    22    1
    18    22    23    1
    19     9    10    2
    20    10    11    1
    21    11    12    2
    22    12    13    1
    23    13     4    1
    24    12     8    1
    25    21    16    1
    26    23    16    1
@<TRIPOS>MOLECULE
*****
 23 26 0 0 0
SMALL
GASTEIGER

@<TRIPOS>ATOM
      1 C          62.4258   89.3025   11.9755 C.2     1  UNL1        0.3428
      2 O          60.9868   89.5252   12.3356 O.2     1  UNL1       -0.2448
      3 C          67.3505   93.4400   15.0187 C.3     1  UNL1        0.0268
      4 C          66.3286   92.6491   14.2571 C.2     1  UNL1       -0.0375
      5 C          65.6301   91.4959   14.9145 C.2     1  UNL1       -0.0014
      6 C          64.6082   90.7050   14.1528 C.2     1  UNL1        0.0353
      7 BR         63.9097   89.5518   14.8103 Br      1  UNL1       -0.0490
      8 C          64.2847   91.0674   12.7336 C.2     1  UNL1        0.0278
      9 C          63.3301   90.4757   11.7393 C.2     1  UNL1        0.0963
     10 C          63.4385   91.2633   10.4673 C.2     1  UNL1        0.1049
     11 N          64.4602   92.3416   10.6755 N.2     1  UNL1       -0.2476
     12 C          64.9831   92.2206   12.0762 C.2     1  UNL1        0.0638
     13 C          66.0050   93.0114   12.8378 C.3     1  UNL1        0.0678
     14 O          62.9605   87.9065   11.8517 O.3     1  UNL1       -0.4454
     15 C          62.0723   86.8044   11.3552 C.3     1  UNL1        0.2087
     16 C          62.5680   85.3887   11.3454 C.3     1  UNL1        0.0445
     17 C          62.5085   84.5645   12.5972 C.3     1  UNL1        0.0210
     18 C          63.0041   83.1488   12.5873 C.3     1  UNL1        0.0722
     19 N          63.5593   82.5573   11.3256 N.3     1  UNL1       -0.2727
     20 C          63.6187   83.3815   10.0737 C.3     1  UNL1        0.0722
     21 C          63.1231   84.7972   10.0836 C.3     1  UNL1        0.0210
     22 C          63.2996   83.3374   11.2823 C.3     1  UNL1        0.0722
     23 C          62.8515   84.6175   11.2911 C.3     1  UNL1        0.0210
@<TRIPOS>BOND
     1     3     4    1
     2     4     5    2
     3     5     6    1
     4     6     7    1
     5     6     8    2
     6     8     9    1
     7     9     1    1
     8     1     2    2
     9     1    14    1
    10    14    15    1
    11    15    16    1
    12    16    17    1
    13    17    18    1
    14    18    19    1
    15    19    20    1
    16    20    21    1
    17    19    22    1
    18    22    23    1
    19     9    10    2
    20    10    11    1
    21    11    12    2
    22    12    13    1
    23    13     4    1
    24    12     8    1
    25    21    16    1
    26    23    16    1
@<TRIPOS>MOLECULE
*****
 23 26 0 0 0
SMALL
GASTEIGER

@<TRIPOS>ATOM
      1 C          62.7401   89.1921   12.6047 C.2     1  UNL1        0.3428
      2 O          61.2817   89.5308   12.6954 O.2     1  UNL1       -0.2448
      3 C          66.6789   94.8959   10.9969 C.3     1  UNL1        0.0268
      4 C          65.9111   93.6964   11.4677 C.2     1  UNL1       -0.0375
      5 C          64.9380   93.0204   10.5479 C.2     1  UNL1       -0.0014
      6 C          64.1702   91.8208   11.0188 C.2     1  UNL1        0.0353
      7 BR         63.1970   91.1448   10.0991 Br      1  UNL1       -0.0490
      8 C          64.3755   91.2974   12.4094 C.2     1  UNL1        0.0278
      9 C          63.7660   90.1424   13.1473 C.2     1  UNL1        0.0963
     10 C          64.3624   90.1046   14.5232 C.2     1  UNL1        0.1049
     11 N          65.3405   91.2362   14.6355 N.2     1  UNL1       -0.2476
     12 C          65.3486   91.9734   13.3292 C.2     1  UNL1        0.0638
     13 C          66.1164   93.1729   12.8584 C.3     1  UNL1        0.0678
     14 O          63.1727   87.9031   11.9712 O.3     1  UNL1       -0.4454
     15 C          62.1707   86.8136   11.7277 C.3     1  UNL1        0.2087
     16 C          61.6241   86.5919   10.3486 C.3     1  UNL1        0.0445
     17 C          60.3136   87.2055    9.9536 C.3     1  UNL1        0.0210
     18 C          59.7671   86.9838    8.5745 C.3     1  UNL1        0.0722
     19 N          60.5310   86.1484    7.5903 N.3     1  UNL1       -0.2727
     20 C          61.8415   85.5348    7.9853 C.3     1  UNL1        0.0722
     21 C          62.3881   85.7566    9.3645 C.3     1  UNL1        0.0210
     22 C          60.8707   86.2418    8.3345 C.3     1  UNL1        0.0722
     23 C          61.3650   86.4422    9.5815 C.3     1  UNL1        0.0210
@<TRIPOS>BOND
     1     3     4    1
     2     4     5    2
     3     5     6    1
     4     6     7    1
     5     6     8    2
     6     8     9    1
     7     9     1    1
     8     1     2    2
     9     1    14    1
    10    14    15    1
    11    15    16    1
    12    16    17    1
    13    17    18    1
    14    18    19    1
    15    19    20    1
    16    20    21    1
    17    19    22    1
    18    22    23    1
    19     9    10    2
    20    10    11    1
    21    11    12    2
    22    12    13    1
    23    13     4    1
    24    12     8    1
    25    21    16    1
    26    23    16    1
@<TRIPOS>MOLECULE
*****
 23 26 0 0 0
SMALL
GASTEIGER

@<TRIPOS>ATOM
      1 C          62.3198   88.7894   12.1095 C.2     1  UNL1        0.3428
      2 O          60.8643   89.1292   12.2364 O.2     1  UNL1       -0.2448
      3 C          66.5313   94.4968   11.5437 C.3     1  UNL1        0.0268
      4 C          65.6990   93.2749   11.7967 C.2     1  UNL1       -0.0375
      5 C          64.7539   92.7797   10.7424 C.2     1  UNL1       -0.0014
      6 C          63.9215   91.5577   10.9955 C.2     1  UNL1        0.0353
      7 BR         62.9764   91.0625    9.9412 Br      1  UNL1       -0.0490
      8 C          64.0342   90.8310   12.3028 C.2     1  UNL1        0.0278
      9 C          63.3470   89.6080   12.8338 C.2     1  UNL1        0.0963
     10 C          63.8674   89.3473   14.2163 C.2     1  UNL1        0.1049
     11 N          64.8762   90.4092   14.5397 N.2     1  UNL1       -0.2476
     12 C          64.9793   91.3262   13.3571 C.2     1  UNL1        0.0638
     13 C          65.8117   92.5481   13.1041 C.3     1  UNL1        0.0678
     14 O          62.7480   87.6310   11.2582 O.3     1  UNL1       -0.4454
     15 C          61.9433   86.3651   11.2543 C.3     1  UNL1        0.2087
     16 C          62.6361   85.0358   11.3096 C.3     1  UNL1        0.0445
     17 C          63.2325   84.4485   10.0648 C.3     1  UNL1        0.0210
     18 C          63.9252   83.1192   10.1202 C.3     1  UNL1        0.0722
     19 N          64.0216   82.3773   11.4203 N.3     1  UNL1       -0.2727
     20 C          63.4252   82.9646   12.6650 C.3     1  UNL1        0.0722
     21 C          62.7325   84.2939   12.6097 C.3     1  UNL1        0.0210
     22 C          63.6324   83.1025   11.4393 C.3     1  UNL1        0.0722
     23 C          63.0060   84.3045   11.3894 C.3     1  UNL1        0.0210
@<TRIPOS>BOND
     1     3     4    1
     2     4     5    2
     3     5     6    1
     4     6     7    1
     5     6     8    2
     6     8     9    1
     7     9     1    1
     8     1     2    2
     9     1    14    1
    10    14    15    1
    11    15    16    1
    12    16    17    1
    13    17    18    1
    14    18    19    1
    15    19    20    1
    16    20    21    1
    17    19    22    1
    18    22    23    1
    19     9    10    2
    20    10    11    1
    21    11    12    2
    22    12    13    1
    23    13     4    1
    24    12     8    1
    25    21    16    1
    26    23    16    1
@<TRIPOS>MOLECULE
*****
 23 26 0 0 0
SMALL
GASTEIGER

@<TRIPOS>ATOM
      1 C          62.9521   85.0461   13.1168 C.2     1  UNL1        0.3428
      2 O          64.2439   85.6604   13.5681 O.2     1  UNL1       -0.2448
      3 C          62.9057   78.5063   10.3129 C.3     1  UNL1        0.0268
      4 C          62.8690   79.8242   11.0283 C.2     1  UNL1       -0.0375
      5 C          63.2626   81.0797   10.3082 C.2     1  UNL1       -0.0014
      6 C          63.2260   82.3976   11.0237 C.2     1  UNL1        0.0353
      7 BR         63.6196   83.6532   10.3036 Br      1  UNL1       -0.0490
      8 C          62.7958   82.4599   12.4593 C.2     1  UNL1        0.0278
      9 C          62.6610   83.6057   13.4179 C.2     1  UNL1        0.0963
     10 C          62.1841   83.0583   14.7305 C.2     1  UNL1        0.1049
     11 N          62.0242   81.5742   14.5831 N.2     1  UNL1       -0.2476
     12 C          62.4021   81.2043   13.1794 C.2     1  UNL1        0.0638
     13 C          62.4388   79.8865   12.4640 C.3     1  UNL1        0.0678
     14 O          61.9513   85.8720   12.3643 O.3     1  UNL1       -0.4454
     15 C          62.4131   86.8301   11.3065 C.3     1  UNL1        0.2087
     16 C          61.4914   87.2119   10.1864 C.3     1  UNL1        0.0445
     17 C          60.9476   86.1564    9.2697 C.3     1  UNL1        0.0210
     18 C          60.0259   86.5383    8.1496 C.3     1  UNL1        0.0722
     19 N          59.6480   87.9756    7.9462 N.3     1  UNL1       -0.2727
     20 C          60.1917   89.0310    8.8629 C.3     1  UNL1        0.0722
     21 C          61.1134   88.6492    9.9830 C.3     1  UNL1        0.0210
     22 C          60.1562   87.8147    8.5737 C.3     1  UNL1        0.0722
     23 C          60.9896   87.4696    9.5866 C.3     1  UNL1        0.0210
@<TRIPOS>BOND
     1     3     4    1
     2     4     5    2
     3     5     6    1
     4     6     7    1
     5     6     8    2
     6     8     9    1
     7     9     1    1
     8     1     2    2
     9     1    14    1
    10    14    15    1
    11    15    16    1
    12    16    17    1
    13    17    18    1
    14    18    19    1
    15    19    20    1
    16    20    21    1
    17    19    22    1
    18    22    23    1
    19     9    10    2
    20    10    11    1
    21    11    12    2
    22    12    13    1
    23    13     4    1
    24    12     8    1
    25    21    16    1
    26    23    16    1
@<TRIPOS>MOLECULE
*****
 23 26 0 0 0
SMALL
GASTEIGER

@<TRIPOS>ATOM
      1 C          63.0100   85.9500   12.4642 C.2     1  UNL1        0.3428
      2 O          63.9002   86.3836   13.5909 O.2     1  UNL1       -0.2448
      3 C          62.1799   79.0009   13.7498 C.3     1  UNL1        0.0268
      4 C          62.4033   80.4282   13.3463 C.2     1  UNL1       -0.0375
      5 C          62.0934   81.5368   14.3080 C.2     1  UNL1       -0.0014
      6 C          62.3168   82.9642   13.9044 C.2     1  UNL1        0.0353
      7 BR         62.0070   84.0728   14.8662 Br      1  UNL1       -0.0490
      8 C          62.8500   83.2829   12.5391 C.2     1  UNL1        0.0278
      9 C          63.1697   84.5842   11.8650 C.2     1  UNL1        0.0963
     10 C          63.6771   84.2799   10.4867 C.2     1  UNL1        0.1049
     11 N          63.6710   82.7905   10.3089 N.2     1  UNL1       -0.2476
     12 C          63.1598   82.1743   11.5774 C.2     1  UNL1        0.0638
     13 C          62.9365   80.7470   11.9809 C.3     1  UNL1        0.0678
     14 O          61.9600   86.8824   11.9366 O.3     1  UNL1       -0.4454
     15 C          62.1065   87.4802   10.5687 C.3     1  UNL1        0.2087
     16 C          61.2745   86.9650    9.4320 C.3     1  UNL1        0.0445
     17 C          61.8588   85.9842    8.4591 C.3     1  UNL1        0.0210
     18 C          61.0267   85.4690    7.3224 C.3     1  UNL1        0.0722
     19 N          59.6102   85.9346    7.1586 N.3     1  UNL1       -0.2727
     20 C          59.0259   86.9155    8.1315 C.3     1  UNL1        0.0722
     21 C          59.8580   87.4306    9.2682 C.3     1  UNL1        0.0210
     22 C          60.0273   86.2449    7.7970 C.3     1  UNL1        0.0722
     23 C          60.7796   86.7108    8.8249 C.3     1  UNL1        0.0210
@<TRIPOS>BOND
     1     3     4    1
     2     4     5    2
     3     5     6    1
     4     6     7    1
     5     6     8    2
     6     8     9    1
     7     9     1    1
     8     1     2    2
     9     1    14    1
    10    14    15    1
    11    15    16    1
    12    16    17    1
    13    17    18    1
    14    18    19    1
    15    19    20    1
    16    20    21    1
    17    19    22    1
    18    22    23    1
    19     9    10    2
    20    10    11    1
    21    11    12    2
    22    12    13    1
    23    13     4    1
    24    12     8    1
    25    21    16    1
    26    23    16    1
@<TRIPOS>MOLECULE
*****
 23 26 0 0 0
SMALL
GASTEIGER

@<TRIPOS>ATOM
      1 C          60.5716   88.6179   11.1649 C.2     1  UNL1        0.3428
      2 O          59.4015   88.4213   12.0825 O.2     1  UNL1       -0.2448
      3 C          61.8441   84.1113    5.8073 C.3     1  UNL1        0.0268
      4 C          61.6782   84.9893    7.0120 C.2     1  UNL1       -0.0375
      5 C          60.6769   86.1061    6.9940 C.2     1  UNL1       -0.0014
      6 C          60.5110   86.9842    8.1988 C.2     1  UNL1        0.0353
      7 BR         59.5097   88.1010    8.1807 Br      1  UNL1       -0.0490
      8 C          61.3463   86.7455    9.4216 C.2     1  UNL1        0.0278
      9 C          61.4045   87.4417   10.7489 C.2     1  UNL1        0.0963
     10 C          62.4416   86.7552   11.5874 C.2     1  UNL1        0.1049
     11 N          63.0245   85.6348   10.7782 N.2     1  UNL1       -0.2476
     12 C          62.3475   85.6287    9.4396 C.2     1  UNL1        0.0638
     13 C          62.5135   84.7507    8.2349 C.3     1  UNL1        0.0678
     14 O          60.9089   89.9906   10.6631 O.3     1  UNL1       -0.4454
     15 C          62.3065   90.3039   10.2174 C.3     1  UNL1        0.2087
     16 C          63.2883   90.8933   11.1863 C.3     1  UNL1        0.0445
     17 C          63.2956   90.4397   12.6160 C.3     1  UNL1        0.0210
     18 C          64.2774   91.0291   13.5848 C.3     1  UNL1        0.0722
     19 N          65.2520   92.0720   13.1238 N.3     1  UNL1       -0.2727
     20 C          65.2447   92.5256   11.6941 C.3     1  UNL1        0.0722
     21 C          64.2629   91.9362   10.7253 C.3     1  UNL1        0.0210
     22 C          64.7329   91.7781   12.5564 C.3     1  UNL1        0.0722
     23 C          63.8451   91.2453   11.6803 C.3     1  UNL1        0.0210
@<TRIPOS>BOND
     1     3     4    1
     2     4     5    2
     3     5     6    1
     4     6     7    1
     5     6     8    2
     6     8     9    1
     7     9     1    1
     8     1     2    2
     9     1    14    1
    10    14    15    1
    11    15    16    1
    12    16    17    1
    13    17    18    1
    14    18    19    1
    15    19    20    1
    16    20    21    1
    17    19    22    1
    18    22    23    1
    19     9    10    2
    20    10    11    1
    21    11    12    2
    22    12    13    1
    23    13     4    1
    24    12     8    1
    25    21    16    1
    26    23    16    1
@<TRIPOS>MOLECULE
*****
 23 26 0 0 0
SMALL
GASTEIGER

@<TRIPOS>ATOM
      1 C          64.1563   86.4408   14.5726 C.2     1  UNL1        0.3428
      2 O          63.4619   86.1207   15.8631 O.2     1  UNL1       -0.2448
      3 C          61.1789   89.7374    9.0139 C.3     1  UNL1        0.0268
      4 C          61.8541   89.1735   10.2289 C.2     1  UNL1       -0.0375
      5 C          61.7965   87.6999   10.5029 C.2     1  UNL1       -0.0014
      6 C          62.4718   87.1361   11.7180 C.2     1  UNL1        0.0353
      7 BR         62.4143   85.6625   11.9920 Br      1  UNL1       -0.0490
      8 C          63.2045   88.0459   12.6588 C.2     1  UNL1        0.0278
      9 C          63.9599   87.7806   13.9273 C.2     1  UNL1        0.0963
     10 C          64.4842   89.0901   14.4372 C.2     1  UNL1        0.1049
     11 N          64.0530   90.1649   13.4839 N.2     1  UNL1       -0.2476
     12 C          63.2621   89.5195   12.3848 C.2     1  UNL1        0.0638
     13 C          62.5869   90.0834   11.1698 C.3     1  UNL1        0.0678
     14 O          65.0473   85.4210   13.9274 O.3     1  UNL1       -0.4454
     15 C          65.0557   84.0074   14.4293 C.3     1  UNL1        0.2087
     16 C          64.0156   83.0367   13.9541 C.3     1  UNL1        0.0445
     17 C          64.2016   82.3159   12.6519 C.3     1  UNL1        0.0210
     18 C          63.1615   81.3452   12.1767 C.3     1  UNL1        0.0722
     19 N          61.9354   81.0952   13.0039 N.3     1  UNL1       -0.2727
     20 C          61.7494   81.8159   14.3061 C.3     1  UNL1        0.0722
     21 C          62.7895   82.7867   14.7813 C.3     1  UNL1        0.0210
     22 C          62.4778   81.6362   13.3055 C.3     1  UNL1        0.0722
     23 C          63.4183   82.5139   13.7352 C.3     1  UNL1        0.0210
@<TRIPOS>BOND
     1     3     4    1
     2     4     5    2
     3     5     6    1
     4     6     7    1
     5     6     8    2
     6     8     9    1
     7     9     1    1
     8     1     2    2
     9     1    14    1
    10    14    15    1
    11    15    16    1
    12    16    17    1
    13    17    18    1
    14    18    19    1
    15    19    20    1
    16    20    21    1
    17    19    22    1
    18    22    23    1
    19     9    10    2
    20    10    11    1
    21    11    12    2
    22    12    13    1
    23    13     4    1
    24    12     8    1
    25    21    16    1
    26    23    16    1
@<TRIPOS>MOLECULE
*****
 23 26 0 0 0
SMALL
GASTEIGER

@<TRIPOS>ATOM
      1 C          63.9064   84.6550   13.5321 C.2     1  UNL1        0.3428
      2 O          65.3532   84.8701   13.8646 O.2     1  UNL1       -0.2448
      3 C          62.6594   78.5467   10.1020 C.3     1  UNL1        0.0268
      4 C          62.8560   79.7746   10.9407 C.2     1  UNL1       -0.0375
      5 C          63.5525   80.9722   10.3654 C.2     1  UNL1       -0.0014
      6 C          63.7491   82.2002   11.2042 C.2     1  UNL1        0.0353
      7 BR         64.4456   83.3977   10.6290 Br      1  UNL1       -0.0490
      8 C          63.2494   82.2306   12.6181 C.2     1  UNL1        0.0278
      9 C          63.2981   83.2916   13.6773 C.2     1  UNL1        0.0963
     10 C          62.6318   82.7499   14.9072 C.2     1  UNL1        0.1049
     11 N          62.1713   81.3540   14.6081 N.2     1  UNL1       -0.2476
     12 C          62.5529   81.0331   13.1934 C.2     1  UNL1        0.0638
     13 C          62.3563   79.8051   12.3547 C.3     1  UNL1        0.0678
     14 O          63.0679   85.8034   13.0544 O.3     1  UNL1       -0.4454
     15 C          62.2195   85.6529   11.8266 C.3     1  UNL1        0.2087
     16 C          61.8426   86.8618   11.0226 C.3     1  UNL1        0.0445
     17 C          60.8093   86.7510    9.9409 C.3     1  UNL1        0.0210
     18 C          60.4325   87.9600    9.1370 C.3     1  UNL1        0.0722
     19 N          61.0889   89.2798    9.4147 N.3     1  UNL1       -0.2727
     20 C          62.1222   89.3906   10.4964 C.3     1  UNL1        0.0722
     21 C          62.4990   88.1816   11.3003 C.3     1  UNL1        0.0210
     22 C          61.3281   88.6452    9.8815 C.3     1  UNL1        0.0722
     23 C          61.6690   87.5520   10.6085 C.3     1  UNL1        0.0210
@<TRIPOS>BOND
     1     3     4    1
     2     4     5    2
     3     5     6    1
     4     6     7    1
     5     6     8    2
     6     8     9    1
     7     9     1    1
     8     1     2    2
     9     1    14    1
    10    14    15    1
    11    15    16    1
    12    16    17    1
    13    17    18    1
    14    18    19    1
    15    19    20    1
    16    20    21    1
    17    19    22    1
    18    22    23    1
    19     9    10    2
    20    10    11    1
    21    11    12    2
    22    12    13    1
    23    13     4    1
    24    12     8    1
    25    21    16    1
    26    23    16    1
