@<TRIPOS>MOLECULE
*****
 40 44 0 0 0
SMALL
GASTEIGER

@<TRIPOS>ATOM
      1 C          63.9496   86.4080   15.6031 C.ar    1  UNL1        0.0611
      2 C          63.2386   85.9484   16.8413 C.ar    1  UNL1        0.1037
      3 N          62.7737   87.1641   17.5870 N.ar    1  UNL1       -0.2269
      4 C          63.1973   88.3750   16.8095 C.ar    1  UNL1        0.1407
      5 N          63.0151   89.8427   17.0597 N.ar    1  UNL1       -0.3374
      6 C          63.5598   90.8430   16.0837 C.ar    1  UNL1        0.0735
      7 C          64.2865   90.3757   14.8575 C.ar    1  UNL1        0.0201
      8 C          64.4687   88.9080   14.6074 C.ar    1  UNL1        0.0047
      9 C          63.9241   87.9076   15.5834 C.ar    1  UNL1        0.0386
     10 H          62.5381   90.1494   17.8644 H       1  UNL1        0.1674
     11 C          64.8311   91.3762   13.8815 C.ar    1  UNL1        0.0399
     12 C          64.3070   91.4155   12.4767 C.ar    1  UNL1        0.1034
     13 N          64.8516   92.4160   11.5006 N.ar    1  UNL1       -0.2121
     14 C          65.9204   93.3771   11.9296 C.ar    1  UNL1        0.2203
     15 N          66.4446   93.3377   13.3345 N.ar    1  UNL1       -0.2121
     16 C          65.8999   92.3373   14.3104 C.ar    1  UNL1        0.1034
     17 N          66.4650   94.3775   10.9537 N.pl3   1  UNL1       -0.2730
     18 C          66.2547   95.8442   11.1871 C.3     1  UNL1        0.1257
     19 C          66.7993   96.8447   10.2112 C.3     1  UNL1        0.1637
     20 O          67.5543   96.3784    9.0018 O.3     1  UNL1       -0.3501
     21 C          67.7646   94.9116    8.7683 C.3     1  UNL1        0.1637
     22 C          67.2200   93.9112    9.7443 C.3     1  UNL1        0.1257
     23 C          64.5761   85.5232   14.5664 C.2     1  UNL1        0.2015
     24 O          66.0149   85.1195   14.6953 O.2     1  UNL1       -0.2864
     25 C          62.4366   85.5419   11.2239 C.ar    1  UNL1        0.0920
     26 C          62.1389   84.0798   11.0697 C.ar    1  UNL1        0.0204
     27 C          62.6537   83.0989   12.0810 C.ar    1  UNL1        0.0312
     28 C          63.4660   83.5800   13.2466 C.ar    1  UNL1        0.1454
     29 F          63.9808   82.5990   14.2579 F       1  UNL1       -0.2040
     30 C          63.7637   85.0420   13.4008 C.ar    1  UNL1        0.0951
     31 C          63.2490   86.0229   12.3894 C.ar    1  UNL1        0.1598
     32 F          63.5467   87.4850   12.5437 F       1  UNL1       -0.2026
     33 N          61.9219   86.5228   10.2125 N.pl3   1  UNL1       -0.2166
     34 H          61.8155   87.4708   10.4560 H       1  UNL1        0.1734
     35 S          61.5692   86.0594    8.8302 S.O2    1  UNL1        0.0540
     36 O          60.1235   86.3544    9.1001 O.2     1  UNL1       -0.1545
     37 O          63.0149   85.7643    8.5603 O.2     1  UNL1       -0.1545
     38 C          61.2166   85.5960    7.4479 C.3     1  UNL1        0.1724
     39 C          61.7738   84.0906    5.4049 C.3     1  UNL1        0.0019
     40 C          62.2136   84.8188    6.6403 C.3     1  UNL1        0.0273
@<TRIPOS>BOND
     1    39    40    1
     2    40    38    1
     3    38    35    1
     4    35    36    2
     5    35    37    2
     6    35    33    1
     7    33    25    1
     8    25    26   ar
     9    26    27   ar
    10    27    28   ar
    11    28    29    1
    12    28    30   ar
    13    30    23    1
    14    23    24    2
    15    23     1    1
    16     1     2   ar
    17     2     3   ar
    18     3     4   ar
    19     4     5   ar
    20     5     6   ar
    21     6     7   ar
    22     7    11    1
    23    11    12   ar
    24    12    13   ar
    25    13    14   ar
    26    14    17    1
    27    17    18    1
    28    18    19    1
    29    19    20    1
    30    20    21    1
    31    21    22    1
    32    14    15   ar
    33    15    16   ar
    34     7     8   ar
    35     8     9   ar
    36    30    31   ar
    37    31    32    1
    38    31    25   ar
    39     9     1   ar
    40     9     4    1
    41    16    11   ar
    42    22    17    1
    43    33    34    1
    44     5    10    1
@<TRIPOS>MOLECULE
*****
 40 44 0 0 0
SMALL
GASTEIGER

@<TRIPOS>ATOM
      1 C          63.9868   86.4002   15.6504 C.ar    1  UNL1        0.0611
      2 C          63.2546   85.9512   16.8801 C.ar    1  UNL1        0.1037
      3 N          62.7515   87.1721   17.5917 N.ar    1  UNL1       -0.2269
      4 C          63.1727   88.3756   16.8017 C.ar    1  UNL1        0.1407
      5 N          62.9597   89.8443   17.0199 N.ar    1  UNL1       -0.3374
      6 C          63.5103   90.8359   16.0383 C.ar    1  UNL1        0.0735
      7 C          64.2738   90.3588   14.8385 C.ar    1  UNL1        0.0201
      8 C          64.4868   88.8901   14.6203 C.ar    1  UNL1        0.0047
      9 C          63.9363   87.8985   15.6019 C.ar    1  UNL1        0.0386
     10 H          62.4586   90.1574   17.8073 H       1  UNL1        0.1674
     11 C          64.8243   91.3505   13.8569 C.ar    1  UNL1        0.0399
     12 C          65.8891   92.3168   14.2841 C.ar    1  UNL1        0.1034
     13 N          66.4396   93.3085   13.3025 N.ar    1  UNL1       -0.2121
     14 C          65.9253   93.3338   11.8936 C.ar    1  UNL1        0.2203
     15 N          64.8606   92.3674   11.4664 N.ar    1  UNL1       -0.2121
     16 C          64.3101   91.3758   12.4480 C.ar    1  UNL1        0.1034
     17 N          66.4758   94.3254   10.9120 N.pl3   1  UNL1       -0.2730
     18 C          66.2808   95.7949   11.1411 C.3     1  UNL1        0.1257
     19 C          66.8313   96.7866   10.1595 C.3     1  UNL1        0.1637
     20 O          67.5768   96.3088    8.9487 O.3     1  UNL1       -0.3501
     21 C          67.7718   94.8392    8.7196 C.3     1  UNL1        0.1637
     22 C          67.2213   93.8476    9.7013 C.3     1  UNL1        0.1257
     23 C          64.6528   85.5075   14.6456 C.2     1  UNL1        0.2015
     24 O          66.1319   85.2693   14.7179 O.2     1  UNL1       -0.2864
     25 C          62.4488   85.0254   11.3805 C.ar    1  UNL1        0.0920
     26 C          62.2130   83.5445   11.4139 C.ar    1  UNL1        0.0204
     27 C          62.7904   82.7179   12.5244 C.ar    1  UNL1        0.0312
     28 C          63.6036   83.3722   13.6016 C.ar    1  UNL1        0.1454
     29 F          64.1810   82.5456   14.7122 F       1  UNL1       -0.2040
     30 C          63.8395   84.8531   13.5683 C.ar    1  UNL1        0.0951
     31 C          63.2621   85.6797   12.4577 C.ar    1  UNL1        0.1598
     32 F          63.4980   87.1607   12.4245 F       1  UNL1       -0.2026
     33 N          61.8714   85.8520   10.2699 N.pl3   1  UNL1       -0.2166
     34 H          61.7177   85.4489    9.3850 H       1  UNL1        0.1734
     35 S          61.5284   87.2927   10.5077 S.O2    1  UNL1        0.0540
     36 O          62.5063   87.7008    9.4461 O.2     1  UNL1       -0.1545
     37 O          60.5504   86.8847   11.5693 O.2     1  UNL1       -0.1545
     38 C          61.1852   88.7334   10.7455 C.3     1  UNL1        0.1724
     39 C          59.4588   90.5208   11.5038 C.3     1  UNL1        0.0019
     40 C          59.9201   89.0940   11.4663 C.3     1  UNL1        0.0273
@<TRIPOS>BOND
     1    39    40    1
     2    40    38    1
     3    38    35    1
     4    35    36    2
     5    35    37    2
     6    35    33    1
     7    33    25    1
     8    25    26   ar
     9    26    27   ar
    10    27    28   ar
    11    28    29    1
    12    28    30   ar
    13    30    23    1
    14    23    24    2
    15    23     1    1
    16     1     2   ar
    17     2     3   ar
    18     3     4   ar
    19     4     5   ar
    20     5     6   ar
    21     6     7   ar
    22     7    11    1
    23    11    12   ar
    24    12    13   ar
    25    13    14   ar
    26    14    17    1
    27    17    18    1
    28    18    19    1
    29    19    20    1
    30    20    21    1
    31    21    22    1
    32    14    15   ar
    33    15    16   ar
    34     7     8   ar
    35     8     9   ar
    36    30    31   ar
    37    31    32    1
    38    31    25   ar
    39     9     1   ar
    40     9     4    1
    41    16    11   ar
    42    22    17    1
    43    33    34    1
    44     5    10    1
@<TRIPOS>MOLECULE
*****
 40 44 0 0 0
SMALL
GASTEIGER

@<TRIPOS>ATOM
      1 C          61.4146   86.3857    9.0837 C.ar    1  UNL1        0.0611
      2 C          60.0695   86.2868    8.4274 C.ar    1  UNL1        0.1037
      3 N          59.3140   87.5477    8.7266 N.ar    1  UNL1       -0.2269
      4 C          60.1923   88.4258    9.5678 C.ar    1  UNL1        0.1407
      5 N          59.9776   89.7865   10.1614 N.ar    1  UNL1       -0.3374
      6 C          61.0611   90.4290   10.9756 C.ar    1  UNL1        0.0735
      7 C          62.3594   89.7108   11.1963 C.ar    1  UNL1        0.0201
      8 C          62.5741   88.3501   10.6027 C.ar    1  UNL1        0.0047
      9 C          61.4906   87.7076    9.7885 C.ar    1  UNL1        0.0386
     10 H          59.1255   90.2578   10.0166 H       1  UNL1        0.1674
     11 C          63.4430   90.3534   12.0106 C.ar    1  UNL1        0.0399
     12 C          63.8369   89.7646   13.3327 C.ar    1  UNL1        0.1034
     13 N          64.9205   90.4072   14.1470 N.ar    1  UNL1       -0.2121
     14 C          65.6101   91.6386   13.6390 C.ar    1  UNL1        0.2203
     15 N          65.2162   92.2274   12.3168 N.ar    1  UNL1       -0.2121
     16 C          64.1327   91.5848   11.5026 C.ar    1  UNL1        0.1034
     17 N          66.6937   92.2812   14.4532 N.pl3   1  UNL1       -0.2730
     18 C          67.5950   91.4354   15.3029 C.3     1  UNL1        0.1257
     19 C          68.6787   92.0780   16.1172 C.3     1  UNL1        0.1637
     20 O          68.8608   93.5664   16.0817 O.3     1  UNL1       -0.3501
     21 C          67.9594   94.4123   15.2320 C.3     1  UNL1        0.1637
     22 C          66.8758   93.7697   14.4178 C.3     1  UNL1        0.1257
     23 C          62.4944   85.3453    9.0424 C.2     1  UNL1        0.2015
     24 O          63.1543   85.0005    7.7403 O.2     1  UNL1       -0.2864
     25 C          62.6699   84.2945   12.8654 C.ar    1  UNL1        0.0920
     26 C          63.7538   83.2584   12.8251 C.ar    1  UNL1        0.0204
     27 C          64.4179   82.9179   11.5240 C.ar    1  UNL1        0.0312
     28 C          63.9981   83.6135   10.2631 C.ar    1  UNL1        0.1454
     29 F          64.6622   83.2730    8.9619 F       1  UNL1       -0.2040
     30 C          62.9142   84.6496   10.3034 C.ar    1  UNL1        0.0951
     31 C          62.2501   84.9901   11.6045 C.ar    1  UNL1        0.1598
     32 F          61.1662   86.0262   11.6447 F       1  UNL1       -0.2026
     33 N          62.0058   84.6350   14.1666 N.pl3   1  UNL1       -0.2166
     34 H          61.0320   84.5285   14.2650 H       1  UNL1        0.1734
     35 S          62.8253   85.1378   15.3179 S.O2    1  UNL1        0.0540
     36 O          62.1702   84.1359   16.2218 O.2     1  UNL1       -0.1545
     37 O          63.4805   86.1396   14.4140 O.2     1  UNL1       -0.1545
     38 C          63.6449   85.6406   16.4691 C.3     1  UNL1        0.1724
     39 C          63.0207   88.0466   17.2256 C.3     1  UNL1        0.0019
     40 C          63.0330   86.5679   17.4770 C.3     1  UNL1        0.0273
@<TRIPOS>BOND
     1    39    40    1
     2    40    38    1
     3    38    35    1
     4    35    36    2
     5    35    37    2
     6    35    33    1
     7    33    25    1
     8    25    26   ar
     9    26    27   ar
    10    27    28   ar
    11    28    29    1
    12    28    30   ar
    13    30    23    1
    14    23    24    2
    15    23     1    1
    16     1     2   ar
    17     2     3   ar
    18     3     4   ar
    19     4     5   ar
    20     5     6   ar
    21     6     7   ar
    22     7    11    1
    23    11    12   ar
    24    12    13   ar
    25    13    14   ar
    26    14    17    1
    27    17    18    1
    28    18    19    1
    29    19    20    1
    30    20    21    1
    31    21    22    1
    32    14    15   ar
    33    15    16   ar
    34     7     8   ar
    35     8     9   ar
    36    30    31   ar
    37    31    32    1
    38    31    25   ar
    39     9     1   ar
    40     9     4    1
    41    16    11   ar
    42    22    17    1
    43    33    34    1
    44     5    10    1
@<TRIPOS>MOLECULE
*****
 40 44 0 0 0
SMALL
GASTEIGER

@<TRIPOS>ATOM
      1 C          63.9711   86.2768   15.7322 C.ar    1  UNL1        0.0611
      2 C          63.2161   85.8781   16.9655 C.ar    1  UNL1        0.1037
      3 N          62.6667   87.1235   17.5955 N.ar    1  UNL1       -0.2269
      4 C          63.0821   88.2920   16.7516 C.ar    1  UNL1        0.1407
      5 N          62.8304   89.7648   16.8830 N.ar    1  UNL1       -0.3374
      6 C          63.3849   90.7144   15.8628 C.ar    1  UNL1        0.0735
      7 C          64.1910   90.1911   14.7112 C.ar    1  UNL1        0.0201
      8 C          64.4427   88.7182   14.5798 C.ar    1  UNL1        0.0047
      9 C          63.8882   87.7687   15.6000 C.ar    1  UNL1        0.0386
     10 H          62.3013   90.1083   17.6388 H       1  UNL1        0.1674
     11 C          64.7455   91.1407   13.6909 C.ar    1  UNL1        0.0399
     12 C          66.0085   91.8970   13.9786 C.ar    1  UNL1        0.1034
     13 N          66.5630   92.8467   12.9584 N.ar    1  UNL1       -0.2121
     14 C          65.8545   93.0399   11.6505 C.ar    1  UNL1        0.2203
     15 N          64.5914   92.2835   11.3628 N.ar    1  UNL1       -0.2121
     16 C          64.0370   91.3339   12.3830 C.ar    1  UNL1        0.1034
     17 N          66.4089   93.9895   10.6303 N.pl3   1  UNL1       -0.2730
     18 C          67.4311   93.5142    9.6408 C.3     1  UNL1        0.1257
     19 C          67.9856   94.4638    8.6205 C.3     1  UNL1        0.1637
     20 O          67.5178   95.8886    8.5898 O.3     1  UNL1       -0.3501
     21 C          66.4955   96.3639    9.5793 C.3     1  UNL1        0.1637
     22 C          65.9411   95.4143   10.5995 C.3     1  UNL1        0.1257
     23 C          64.6838   85.3469   14.7955 C.2     1  UNL1        0.2015
     24 O          66.1792   85.2390   14.8393 O.2     1  UNL1       -0.2864
     25 C          62.7872   84.2622   11.4823 C.ar    1  UNL1        0.0920
     26 C          62.3354   82.8809   11.8537 C.ar    1  UNL1        0.0204
     27 C          62.6665   82.3216   13.2055 C.ar    1  UNL1        0.0312
     28 C          63.4492   83.1435   14.1861 C.ar    1  UNL1        0.1454
     29 F          63.7803   82.5842   15.5380 F       1  UNL1       -0.2040
     30 C          63.9010   84.5249   13.8148 C.ar    1  UNL1        0.0951
     31 C          63.5699   85.0842   12.4630 C.ar    1  UNL1        0.1598
     32 F          64.0217   86.4655   12.0917 F       1  UNL1       -0.2026
     33 N          62.4562   84.8215   10.1305 N.pl3   1  UNL1       -0.2166
     34 H          62.5226   84.2501    9.3316 H       1  UNL1        0.1734
     35 S          62.0239   86.2516    9.9958 S.O2    1  UNL1        0.0540
     36 O          60.9979   86.0426   11.0699 O.2     1  UNL1       -0.1545
     37 O          63.0498   86.4606    8.9217 O.2     1  UNL1       -0.1545
     38 C          61.5916   87.6816    9.8611 C.3     1  UNL1        0.1724
     39 C          59.3492   88.2671    8.6867 C.3     1  UNL1        0.0019
     40 C          60.1364   88.0361    9.9425 C.3     1  UNL1        0.0273
@<TRIPOS>BOND
     1    39    40    1
     2    40    38    1
     3    38    35    1
     4    35    36    2
     5    35    37    2
     6    35    33    1
     7    33    25    1
     8    25    26   ar
     9    26    27   ar
    10    27    28   ar
    11    28    29    1
    12    28    30   ar
    13    30    23    1
    14    23    24    2
    15    23     1    1
    16     1     2   ar
    17     2     3   ar
    18     3     4   ar
    19     4     5   ar
    20     5     6   ar
    21     6     7   ar
    22     7    11    1
    23    11    12   ar
    24    12    13   ar
    25    13    14   ar
    26    14    17    1
    27    17    18    1
    28    18    19    1
    29    19    20    1
    30    20    21    1
    31    21    22    1
    32    14    15   ar
    33    15    16   ar
    34     7     8   ar
    35     8     9   ar
    36    30    31   ar
    37    31    32    1
    38    31    25   ar
    39     9     1   ar
    40     9     4    1
    41    16    11   ar
    42    22    17    1
    43    33    34    1
    44     5    10    1
@<TRIPOS>MOLECULE
*****
 40 44 0 0 0
SMALL
GASTEIGER

@<TRIPOS>ATOM
      1 C          63.3938   84.9042   14.3454 C.ar    1  UNL1        0.0611
      2 C          62.7676   84.2162   15.5221 C.ar    1  UNL1        0.1037
      3 N          62.5121   85.2482   16.5803 N.ar    1  UNL1       -0.2269
      4 C          62.9804   86.5739   16.0576 C.ar    1  UNL1        0.1407
      5 N          62.9810   87.9472   16.6610 N.ar    1  UNL1       -0.3374
      6 C          63.5265   89.1079   15.8830 C.ar    1  UNL1        0.0735
      7 C          64.0714   88.8952   14.5018 C.ar    1  UNL1        0.0201
      8 C          64.0708   87.5220   13.8985 C.ar    1  UNL1        0.0047
      9 C          63.5253   86.3613   14.6764 C.ar    1  UNL1        0.0386
     10 H          62.6233   88.0867   17.5675 H       1  UNL1        0.1674
     11 C          64.6169   90.0560   13.7238 C.ar    1  UNL1        0.0399
     12 C          63.9432   90.4927   12.4569 C.ar    1  UNL1        0.1034
     13 N          64.4887   91.6535   11.6789 N.ar    1  UNL1       -0.2121
     14 C          65.7080   92.3775   12.1681 C.ar    1  UNL1        0.2203
     15 N          66.3817   91.9407   13.4351 N.ar    1  UNL1       -0.2121
     16 C          65.8362   90.7800   14.2130 C.ar    1  UNL1        0.1034
     17 N          66.2535   93.5382   11.3902 N.pl3   1  UNL1       -0.2730
     18 C          66.0132   94.9399   11.8671 C.3     1  UNL1        0.1257
     19 C          66.5588   96.1007   11.0892 C.3     1  UNL1        0.1637
     20 O          67.3446   95.8597    9.8345 O.3     1  UNL1       -0.3501
     21 C          67.5849   94.4579    9.3576 C.3     1  UNL1        0.1637
     22 C          67.0394   93.2972   10.1355 C.3     1  UNL1        0.1257
     23 C          63.8146   84.2499   13.0629 C.2     1  UNL1        0.2015
     24 O          64.8231   83.1398   13.0829 O.2     1  UNL1       -0.2864
     25 C          61.4426   86.0664   10.4506 C.ar    1  UNL1        0.0920
     26 C          62.0513   85.6175    9.1552 C.ar    1  UNL1        0.0204
     27 C          63.2477   84.7128    9.1624 C.ar    1  UNL1        0.0312
     28 C          63.8355   84.2569   10.4649 C.ar    1  UNL1        0.1454
     29 F          65.0319   83.3522   10.4721 F       1  UNL1       -0.2040
     30 C          63.2268   84.7058   11.7603 C.ar    1  UNL1        0.0951
     31 C          62.0304   85.6105   11.7531 C.ar    1  UNL1        0.1598
     32 F          61.4217   86.0593   13.0486 F       1  UNL1       -0.2026
     33 N          60.2461   86.9711   10.4434 N.pl3   1  UNL1       -0.2166
     34 H          59.5382   86.8564   11.1179 H       1  UNL1        0.1734
     35 S          60.1283   88.0505    9.4085 S.O2    1  UNL1        0.0540
     36 O          59.1208   87.2262    8.6634 O.2     1  UNL1       -0.1545
     37 O          61.1359   88.8748   10.1537 O.2     1  UNL1       -0.1545
     38 C          60.0106   89.1300    8.3737 C.3     1  UNL1        0.1724
     39 C          59.1722   89.9378    6.0510 C.3     1  UNL1        0.0019
     40 C          59.3228   88.8481    7.0708 C.3     1  UNL1        0.0273
@<TRIPOS>BOND
     1    39    40    1
     2    40    38    1
     3    38    35    1
     4    35    36    2
     5    35    37    2
     6    35    33    1
     7    33    25    1
     8    25    26   ar
     9    26    27   ar
    10    27    28   ar
    11    28    29    1
    12    28    30   ar
    13    30    23    1
    14    23    24    2
    15    23     1    1
    16     1     2   ar
    17     2     3   ar
    18     3     4   ar
    19     4     5   ar
    20     5     6   ar
    21     6     7   ar
    22     7    11    1
    23    11    12   ar
    24    12    13   ar
    25    13    14   ar
    26    14    17    1
    27    17    18    1
    28    18    19    1
    29    19    20    1
    30    20    21    1
    31    21    22    1
    32    14    15   ar
    33    15    16   ar
    34     7     8   ar
    35     8     9   ar
    36    30    31   ar
    37    31    32    1
    38    31    25   ar
    39     9     1   ar
    40     9     4    1
    41    16    11   ar
    42    22    17    1
    43    33    34    1
    44     5    10    1
