@<TRIPOS>MOLECULE
*****
 30 33 0 0 0
SMALL
GASTEIGER

@<TRIPOS>ATOM
      1 N          62.2634   86.5387   11.7790 N.pl3   1  UNL1       -0.2872
      2 N          64.6469   89.8090   13.7471 N.pl3   1  UNL1       -0.2781
      3 C          63.8591   90.0993   12.5041 C.3     1  UNL1        0.0953
      4 C          63.0646   89.0091   11.8481 C.3     1  UNL1        0.0416
      5 C          63.0579   87.6288   12.4350 C.3     1  UNL1        0.0807
      6 C          63.8457   87.3386   13.6780 C.3     1  UNL1        0.0416
      7 C          64.6402   88.4287   14.3341 C.3     1  UNL1        0.0953
      8 F          67.8249   94.1695   16.3713 F       1  UNL1       -0.2009
      9 C          67.0304   93.0794   15.7153 C.ar    1  UNL1        0.1784
     10 C          65.6899   92.6928   16.2663 C.ar    1  UNL1        0.1330
     11 N          64.8954   91.6027   15.6102 N.ar    1  UNL1       -0.2097
     12 C          65.4414   90.8992   14.4032 C.ar    1  UNL1        0.2203
     13 N          66.7819   91.2858   13.8522 N.ar    1  UNL1       -0.2097
     14 C          67.5764   92.3759   14.5083 C.ar    1  UNL1        0.1330
     15 C          62.3932   85.1234   12.2587 C.ar    1  UNL1        0.0515
     16 C          62.7000   84.0260   11.2831 C.ar    1  UNL1        0.0148
     17 C          62.8298   82.6107   11.7628 C.ar    1  UNL1        0.0051
     18 C          62.6528   82.2928   13.2180 C.ar    1  UNL1        0.0715
     19 C          62.3460   83.3901   14.1935 C.ar    1  UNL1        0.0051
     20 C          62.2162   84.8055   13.7139 C.ar    1  UNL1        0.0148
     21 C          62.7826   80.8774   13.6977 C.3     1  UNL1        0.4186
     22 F          62.9124   79.4622   14.1773 F       1  UNL1       -0.1659
     23 F          61.3106   80.8393   13.9837 F       1  UNL1       -0.1659
     24 F          64.2545   80.9156   13.4117 F       1  UNL1       -0.1659
     25 C          61.3391   86.8638   10.6433 C.ar    1  UNL1        0.0710
     26 C          61.5305   86.2063    9.3087 C.ar    1  UNL1        0.0180
     27 C          60.6062   86.5315    8.1729 C.ar    1  UNL1        0.0220
     28 C          59.4905   87.5141    8.3718 C.ar    1  UNL1        0.0990
     29 N          59.2991   88.1716    9.7063 N.ar    1  UNL1       -0.2410
     30 C          60.2233   87.8465   10.8420 C.ar    1  UNL1        0.1136
@<TRIPOS>BOND
     1     8     9    1
     2     9    10   ar
     3    10    11   ar
     4    11    12   ar
     5    12     2    1
     6     2     3    1
     7     3     4    1
     8     4     5    1
     9     5     1    1
    10     1    15    1
    11    15    16   ar
    12    16    17   ar
    13    17    18   ar
    14    18    21    1
    15    21    22    1
    16    21    23    1
    17    21    24    1
    18    18    19   ar
    19    19    20   ar
    20     1    25    1
    21    25    26   ar
    22    26    27   ar
    23    27    28   ar
    24    28    29   ar
    25    29    30   ar
    26     5     6    1
    27     6     7    1
    28    12    13   ar
    29    13    14   ar
    30    14     9   ar
    31     7     2    1
    32    20    15   ar
    33    30    25   ar
@<TRIPOS>MOLECULE
*****
 30 33 0 0 0
SMALL
GASTEIGER

@<TRIPOS>ATOM
      1 N          62.2632   86.5293   11.7851 N.pl3   1  UNL1       -0.2872
      2 N          64.6406   89.7980   13.7633 N.pl3   1  UNL1       -0.2781
      3 C          64.6337   88.4167   14.3479 C.3     1  UNL1        0.0953
      4 C          63.8413   87.3271   13.6885 C.3     1  UNL1        0.0416
      5 C          63.0557   87.6189   12.4445 C.3     1  UNL1        0.0807
      6 C          63.0625   89.0002   11.8599 C.3     1  UNL1        0.0416
      7 C          63.8550   90.0898   12.5193 C.3     1  UNL1        0.0953
      8 F          67.8105   94.1564   16.4008 F       1  UNL1       -0.2009
      9 C          67.0180   93.0668   15.7414 C.ar    1  UNL1        0.1784
     10 C          65.6715   92.6865   16.2820 C.ar    1  UNL1        0.1330
     11 N          64.8790   91.5969   15.6226 N.ar    1  UNL1       -0.2097
     12 C          65.4331   90.8876   14.4227 C.ar    1  UNL1        0.2203
     13 N          66.7796   91.2679   13.8821 N.ar    1  UNL1       -0.2097
     14 C          67.5721   92.3575   14.5415 C.ar    1  UNL1        0.1330
     15 C          62.3904   85.1138   12.2650 C.ar    1  UNL1        0.0515
     16 C          62.2052   84.7953   13.7191 C.ar    1  UNL1        0.0148
     17 C          62.3325   83.3798   14.1989 C.ar    1  UNL1        0.0051
     18 C          62.6450   82.2829   13.2247 C.ar    1  UNL1        0.0715
     19 C          62.8303   82.6014   11.7707 C.ar    1  UNL1        0.0051
     20 C          62.7030   84.0169   11.2908 C.ar    1  UNL1        0.0148
     21 C          62.7723   80.8674   13.7046 C.3     1  UNL1        0.4186
     22 F          62.8995   79.4520   14.1845 F       1  UNL1       -0.1659
     23 F          64.2453   80.9047   13.4243 F       1  UNL1       -0.1659
     24 F          61.2992   80.8300   13.9849 F       1  UNL1       -0.1659
     25 C          61.3434   86.8551   10.6459 C.ar    1  UNL1        0.0710
     26 C          61.5396   86.1978    9.3120 C.ar    1  UNL1        0.0180
     27 C          60.6198   86.5237    8.1727 C.ar    1  UNL1        0.0220
     28 C          59.5039   87.5069    8.3675 C.ar    1  UNL1        0.0990
     29 N          59.3077   88.1642    9.7014 N.ar    1  UNL1       -0.2410
     30 C          60.2274   87.8384   10.8406 C.ar    1  UNL1        0.1136
@<TRIPOS>BOND
     1     8     9    1
     2     9    10   ar
     3    10    11   ar
     4    11    12   ar
     5    12     2    1
     6     2     3    1
     7     3     4    1
     8     4     5    1
     9     5     1    1
    10     1    15    1
    11    15    16   ar
    12    16    17   ar
    13    17    18   ar
    14    18    21    1
    15    21    22    1
    16    21    23    1
    17    21    24    1
    18    18    19   ar
    19    19    20   ar
    20     1    25    1
    21    25    26   ar
    22    26    27   ar
    23    27    28   ar
    24    28    29   ar
    25    29    30   ar
    26     5     6    1
    27     6     7    1
    28    12    13   ar
    29    13    14   ar
    30    14     9   ar
    31     7     2    1
    32    20    15   ar
    33    30    25   ar
@<TRIPOS>MOLECULE
*****
 30 33 0 0 0
SMALL
GASTEIGER

@<TRIPOS>ATOM
      1 N          62.4080   85.7807   11.6835 N.pl3   1  UNL1       -0.2872
      2 N          64.4436   89.1710   13.8311 N.pl3   1  UNL1       -0.2781
      3 C          64.5615   87.7714   14.3574 C.3     1  UNL1        0.0953
      4 C          63.8829   86.6413   13.6416 C.3     1  UNL1        0.0416
      5 C          63.0865   86.9108   12.3994 C.3     1  UNL1        0.0807
      6 C          62.9687   88.3105   11.8731 C.3     1  UNL1        0.0416
      7 C          63.6472   89.4406   12.5890 C.3     1  UNL1        0.0953
      8 F          67.1578   93.6914   16.6946 F       1  UNL1       -0.2009
      9 C          66.4792   92.5613   15.9787 C.ar    1  UNL1        0.1784
     10 C          67.1974   91.8270   14.8856 C.ar    1  UNL1        0.1330
     11 N          66.5189   90.6970   14.1697 N.ar    1  UNL1       -0.2097
     12 C          65.1222   90.3011   14.5470 C.ar    1  UNL1        0.2203
     13 N          64.4040   91.0353   15.6402 N.ar    1  UNL1       -0.2097
     14 C          65.0825   92.1654   16.3560 C.ar    1  UNL1        0.1330
     15 C          62.4895   84.3877   12.2338 C.ar    1  UNL1        0.0515
     16 C          62.7891   83.2366   11.3199 C.ar    1  UNL1        0.0148
     17 C          62.8707   81.8436   11.8702 C.ar    1  UNL1        0.0051
     18 C          62.6525   81.6016   13.3343 C.ar    1  UNL1        0.0715
     19 C          62.3529   82.7526   14.2483 C.ar    1  UNL1        0.0051
     20 C          62.2713   84.1457   13.6980 C.ar    1  UNL1        0.0148
     21 C          62.7340   80.2085   13.8846 C.3     1  UNL1        0.4186
     22 F          62.8155   78.8155   14.4348 F       1  UNL1       -0.1659
     23 F          64.1238   80.4843   14.3770 F       1  UNL1       -0.1659
     24 F          61.3443   79.9327   13.3922 F       1  UNL1       -0.1659
     25 C          61.6479   86.0436   10.4174 C.ar    1  UNL1        0.0710
     26 C          62.2484   85.6778    9.0924 C.ar    1  UNL1        0.0180
     27 C          61.4883   85.9408    7.8262 C.ar    1  UNL1        0.0220
     28 C          60.1277   86.5695    7.8851 C.ar    1  UNL1        0.0990
     29 N          59.5272   86.9353    9.2101 N.ar    1  UNL1       -0.2410
     30 C          60.2873   86.6724   10.4762 C.ar    1  UNL1        0.1136
@<TRIPOS>BOND
     1     8     9    1
     2     9    10   ar
     3    10    11   ar
     4    11    12   ar
     5    12     2    1
     6     2     3    1
     7     3     4    1
     8     4     5    1
     9     5     1    1
    10     1    15    1
    11    15    16   ar
    12    16    17   ar
    13    17    18   ar
    14    18    21    1
    15    21    22    1
    16    21    23    1
    17    21    24    1
    18    18    19   ar
    19    19    20   ar
    20     1    25    1
    21    25    26   ar
    22    26    27   ar
    23    27    28   ar
    24    28    29   ar
    25    29    30   ar
    26     5     6    1
    27     6     7    1
    28    12    13   ar
    29    13    14   ar
    30    14     9   ar
    31     7     2    1
    32    20    15   ar
    33    30    25   ar
@<TRIPOS>MOLECULE
*****
 30 33 0 0 0
SMALL
GASTEIGER

@<TRIPOS>ATOM
      1 N          63.7045   87.2562   14.4261 N.pl3   1  UNL1       -0.2872
      2 N          64.9294   91.2651   12.7896 N.pl3   1  UNL1       -0.2781
      3 C          63.9220   90.4312   12.0550 C.3     1  UNL1        0.0953
      4 C          63.5137   89.0949   12.6005 C.3     1  UNL1        0.0416
      5 C          64.1128   88.5925   13.8806 C.3     1  UNL1        0.0807
      6 C          65.1202   89.4264   14.6152 C.3     1  UNL1        0.0416
      7 C          65.5285   90.7627   14.0697 C.3     1  UNL1        0.0953
      8 F          66.5626   96.6104   10.6076 F       1  UNL1       -0.2009
      9 C          66.1543   95.2741   11.1531 C.ar    1  UNL1        0.1784
     10 C          65.5308   94.2532   10.2481 C.ar    1  UNL1        0.1330
     11 N          65.1225   92.9169   10.7936 N.ar    1  UNL1       -0.2097
     12 C          65.3377   92.6014   12.2441 C.ar    1  UNL1        0.2203
     13 N          65.9612   93.6222   13.1491 N.ar    1  UNL1       -0.2097
     14 C          66.3695   94.9585   12.6036 C.ar    1  UNL1        0.1330
     15 C          63.6657   86.0581   13.5244 C.ar    1  UNL1        0.0515
     16 C          62.7446   86.0399   12.3405 C.ar    1  UNL1        0.0148
     17 C          62.7058   84.8418   11.4389 C.ar    1  UNL1        0.0051
     18 C          63.5879   83.6619   11.7209 C.ar    1  UNL1        0.0715
     19 C          64.5089   83.6801   12.9047 C.ar    1  UNL1        0.0051
     20 C          64.5478   84.8782   13.8065 C.ar    1  UNL1        0.0148
     21 C          63.5490   82.4638   10.8192 C.3     1  UNL1        0.4186
     22 F          63.5101   81.2657    9.9175 F       1  UNL1       -0.1659
     23 F          64.6312   83.0657    9.9727 F       1  UNL1       -0.1659
     24 F          62.4668   81.8619   11.6656 F       1  UNL1       -0.1659
     25 C          63.3351   87.1179   15.8732 C.ar    1  UNL1        0.0710
     26 C          63.2197   88.3383   16.7377 C.ar    1  UNL1        0.0180
     27 C          62.8502   88.2000   18.1850 C.ar    1  UNL1        0.0220
     28 C          62.5962   86.8414   18.7677 C.ar    1  UNL1        0.0990
     29 N          62.7116   85.6210   17.9032 N.ar    1  UNL1       -0.2410
     30 C          63.0811   85.7592   16.4560 C.ar    1  UNL1        0.1136
@<TRIPOS>BOND
     1     8     9    1
     2     9    10   ar
     3    10    11   ar
     4    11    12   ar
     5    12     2    1
     6     2     3    1
     7     3     4    1
     8     4     5    1
     9     5     1    1
    10     1    15    1
    11    15    16   ar
    12    16    17   ar
    13    17    18   ar
    14    18    21    1
    15    21    22    1
    16    21    23    1
    17    21    24    1
    18    18    19   ar
    19    19    20   ar
    20     1    25    1
    21    25    26   ar
    22    26    27   ar
    23    27    28   ar
    24    28    29   ar
    25    29    30   ar
    26     5     6    1
    27     6     7    1
    28    12    13   ar
    29    13    14   ar
    30    14     9   ar
    31     7     2    1
    32    20    15   ar
    33    30    25   ar
@<TRIPOS>MOLECULE
*****
 30 33 0 0 0
SMALL
GASTEIGER

@<TRIPOS>ATOM
      1 N          62.7735   86.2958   12.4185 N.pl3   1  UNL1       -0.2872
      2 N          65.0262   89.7799   14.1610 N.pl3   1  UNL1       -0.2781
      3 C          64.1895   89.9677   12.9303 C.3     1  UNL1        0.0953
      4 C          63.4385   88.8064   12.3495 C.3     1  UNL1        0.0416
      5 C          63.5244   87.4572   12.9993 C.3     1  UNL1        0.0807
      6 C          64.3612   87.2693   14.2299 C.3     1  UNL1        0.0416
      7 C          65.1121   88.4307   14.8107 C.3     1  UNL1        0.0953
      8 F          68.0300   94.4253   16.4843 F       1  UNL1       -0.2009
      9 C          67.2790   93.2640   15.9034 C.ar    1  UNL1        0.1784
     10 C          65.9036   92.9348   16.4030 C.ar    1  UNL1        0.1330
     11 N          65.1526   91.7734   15.8222 N.ar    1  UNL1       -0.2097
     12 C          65.7772   90.9412   14.7418 C.ar    1  UNL1        0.2203
     13 N          67.1527   91.2704   14.2422 N.ar    1  UNL1       -0.2097
     14 C          67.9036   92.4318   14.8230 C.ar    1  UNL1        0.1330
     15 C          61.9027   86.4930   11.2132 C.ar    1  UNL1        0.0515
     16 C          62.1920   85.7411    9.9478 C.ar    1  UNL1        0.0148
     17 C          61.3212   85.9383    8.7425 C.ar    1  UNL1        0.0051
     18 C          60.1611   86.8873    8.8025 C.ar    1  UNL1        0.0715
     19 C          59.8718   87.6391   10.0678 C.ar    1  UNL1        0.0051
     20 C          60.7426   87.4419   11.2732 C.ar    1  UNL1        0.0148
     21 C          59.2903   87.0844    7.5971 C.3     1  UNL1        0.4186
     22 F          58.4195   87.2816    6.3918 F       1  UNL1       -0.1659
     23 F          59.5353   85.6624    7.1874 F       1  UNL1       -0.1659
     24 F          59.0452   88.5064    8.0067 F       1  UNL1       -0.1659
     25 C          62.8933   84.9373   13.0430 C.ar    1  UNL1        0.0710
     26 C          63.7823   83.9016   12.4208 C.ar    1  UNL1        0.0180
     27 C          63.9022   82.5431   13.0454 C.ar    1  UNL1        0.0220
     28 C          63.1330   82.2202   14.2920 C.ar    1  UNL1        0.0990
     29 N          62.2440   83.2559   14.9141 N.ar    1  UNL1       -0.2410
     30 C          62.1242   84.6144   14.2897 C.ar    1  UNL1        0.1136
@<TRIPOS>BOND
     1     8     9    1
     2     9    10   ar
     3    10    11   ar
     4    11    12   ar
     5    12     2    1
     6     2     3    1
     7     3     4    1
     8     4     5    1
     9     5     1    1
    10     1    15    1
    11    15    16   ar
    12    16    17   ar
    13    17    18   ar
    14    18    21    1
    15    21    22    1
    16    21    23    1
    17    21    24    1
    18    18    19   ar
    19    19    20   ar
    20     1    25    1
    21    25    26   ar
    22    26    27   ar
    23    27    28   ar
    24    28    29   ar
    25    29    30   ar
    26     5     6    1
    27     6     7    1
    28    12    13   ar
    29    13    14   ar
    30    14     9   ar
    31     7     2    1
    32    20    15   ar
    33    30    25   ar
@<TRIPOS>MOLECULE
*****
 30 33 0 0 0
SMALL
GASTEIGER

@<TRIPOS>ATOM
      1 N          62.7002   88.0578   11.9416 N.pl3   1  UNL1       -0.2872
      2 N          65.5052   90.9982   13.8746 N.pl3   1  UNL1       -0.2781
      3 C          65.1523   89.7227   14.5808 C.3     1  UNL1        0.0953
      4 C          64.2173   88.7426   13.9364 C.3     1  UNL1        0.0416
      5 C          63.6352   89.0379   12.5859 C.3     1  UNL1        0.0807
      6 C          63.9881   90.3134   11.8798 C.3     1  UNL1        0.0416
      7 C          64.9231   91.2935   12.5241 C.3     1  UNL1        0.0953
      8 F          69.2452   94.9186   16.4519 F       1  UNL1       -0.2009
      9 C          68.3102   93.9385   15.8076 C.ar    1  UNL1        0.1784
     10 C          68.4278   92.4754   16.1165 C.ar    1  UNL1        0.1330
     11 N          67.4928   91.4953   15.4721 N.ar    1  UNL1       -0.2097
     12 C          66.4402   91.9783   14.5189 C.ar    1  UNL1        0.2203
     13 N          66.3226   93.4414   14.2101 N.ar    1  UNL1       -0.2097
     14 C          67.2576   94.4215   14.8544 C.ar    1  UNL1        0.1330
     15 C          62.8438   86.5907   12.2189 C.ar    1  UNL1        0.0515
     16 C          62.3137   85.5867   11.2386 C.ar    1  UNL1        0.0148
     17 C          62.4572   84.1196   11.5159 C.ar    1  UNL1        0.0051
     18 C          63.1309   83.6564   12.7736 C.ar    1  UNL1        0.0715
     19 C          63.6609   84.6604   13.7539 C.ar    1  UNL1        0.0051
     20 C          63.5174   86.1276   13.4766 C.ar    1  UNL1        0.0148
     21 C          63.2744   82.1892   13.0509 C.3     1  UNL1        0.4186
     22 F          63.4180   80.7221   13.3281 F       1  UNL1       -0.1659
     23 F          61.8833   82.1590   13.6112 F       1  UNL1       -0.1659
     24 F          64.6655   82.2195   12.4906 F       1  UNL1       -0.1659
     25 C          61.6217   88.5448   11.0199 C.ar    1  UNL1        0.0710
     26 C          60.5767   89.4953   11.5244 C.ar    1  UNL1        0.0180
     27 C          59.4981   89.9823   10.6027 C.ar    1  UNL1        0.0220
     28 C          59.4645   89.5188    9.1765 C.ar    1  UNL1        0.0990
     29 N          60.5095   88.5683    8.6720 N.ar    1  UNL1       -0.2410
     30 C          61.5881   88.0813    9.5937 C.ar    1  UNL1        0.1136
@<TRIPOS>BOND
     1     8     9    1
     2     9    10   ar
     3    10    11   ar
     4    11    12   ar
     5    12     2    1
     6     2     3    1
     7     3     4    1
     8     4     5    1
     9     5     1    1
    10     1    15    1
    11    15    16   ar
    12    16    17   ar
    13    17    18   ar
    14    18    21    1
    15    21    22    1
    16    21    23    1
    17    21    24    1
    18    18    19   ar
    19    19    20   ar
    20     1    25    1
    21    25    26   ar
    22    26    27   ar
    23    27    28   ar
    24    28    29   ar
    25    29    30   ar
    26     5     6    1
    27     6     7    1
    28    12    13   ar
    29    13    14   ar
    30    14     9   ar
    31     7     2    1
    32    20    15   ar
    33    30    25   ar
@<TRIPOS>MOLECULE
*****
 30 33 0 0 0
SMALL
GASTEIGER

@<TRIPOS>ATOM
      1 N          60.8688   94.1494   -2.3693 N.pl3   1  UNL1       -0.2872
      2 N          56.5002   95.1285   -2.8242 N.pl3   1  UNL1       -0.2781
      3 C          57.3674   95.9657   -1.9315 C.3     1  UNL1        0.0953
      4 C          58.8236   95.6393   -1.7798 C.3     1  UNL1        0.0416
      5 C          59.4126   94.4758   -2.5209 C.3     1  UNL1        0.0807
      6 C          58.5454   93.6386   -3.4136 C.3     1  UNL1        0.0416
      7 C          57.0892   93.9650   -3.5653 C.3     1  UNL1        0.0953
      8 F          50.6754   96.4339   -3.4307 F       1  UNL1       -0.2009
      9 C          52.1316   96.1075   -3.2791 C.ar    1  UNL1        0.1784
     10 C          52.6801   95.7326   -1.9343 C.ar    1  UNL1        0.1330
     11 N          54.1363   95.4062   -1.7827 N.ar    1  UNL1       -0.2097
     12 C          55.0440   95.4548   -2.9758 C.ar    1  UNL1        0.2203
     13 N          54.4955   95.8298   -4.3206 N.ar    1  UNL1       -0.2097
     14 C          53.0393   96.1561   -4.4722 C.ar    1  UNL1        0.1330
     15 C          61.3767   93.5658   -1.0843 C.ar    1  UNL1        0.0515
     16 C          60.6597   92.4110   -0.4498 C.ar    1  UNL1        0.0148
     17 C          61.1676   91.8273    0.8352 C.ar    1  UNL1        0.0051
     18 C          62.3926   92.3983    1.4858 C.ar    1  UNL1        0.0715
     19 C          63.1096   93.5531    0.8514 C.ar    1  UNL1        0.0051
     20 C          62.6017   94.1368   -0.4336 C.ar    1  UNL1        0.0148
     21 C          62.9005   91.8146    2.7709 C.3     1  UNL1        0.4186
     22 F          63.4084   91.2309    4.0559 F       1  UNL1       -0.1659
     23 F          64.2554   91.6335    2.1532 F       1  UNL1       -0.1659
     24 F          61.5457   91.9957    3.3886 F       1  UNL1       -0.1659
     25 C          61.8170   94.4068   -3.5026 C.ar    1  UNL1        0.0710
     26 C          62.8106   93.3565   -3.9024 C.ar    1  UNL1        0.0180
     27 C          63.7589   93.6139   -5.0358 C.ar    1  UNL1        0.0220
     28 C          63.7136   94.9215   -5.7694 C.ar    1  UNL1        0.0990
     29 N          62.7200   95.9717   -5.3696 N.ar    1  UNL1       -0.2410
     30 C          61.7718   95.7144   -4.2363 C.ar    1  UNL1        0.1136
@<TRIPOS>BOND
     1     8     9    1
     2     9    10   ar
     3    10    11   ar
     4    11    12   ar
     5    12     2    1
     6     2     3    1
     7     3     4    1
     8     4     5    1
     9     5     1    1
    10     1    15    1
    11    15    16   ar
    12    16    17   ar
    13    17    18   ar
    14    18    21    1
    15    21    22    1
    16    21    23    1
    17    21    24    1
    18    18    19   ar
    19    19    20   ar
    20     1    25    1
    21    25    26   ar
    22    26    27   ar
    23    27    28   ar
    24    28    29   ar
    25    29    30   ar
    26     5     6    1
    27     6     7    1
    28    12    13   ar
    29    13    14   ar
    30    14     9   ar
    31     7     2    1
    32    20    15   ar
    33    30    25   ar
@<TRIPOS>MOLECULE
*****
 30 33 0 0 0
SMALL
GASTEIGER

@<TRIPOS>ATOM
      1 N          62.0917   93.8836   -1.7066 N.pl3   1  UNL1       -0.2872
      2 N          57.7818   95.0463   -2.2749 N.pl3   1  UNL1       -0.2781
      3 C          58.6660   95.8600   -1.3772 C.3     1  UNL1        0.0953
      4 C          60.1026   95.4725   -1.1878 C.3     1  UNL1        0.0416
      5 C          60.6550   94.2712   -1.8961 C.3     1  UNL1        0.0807
      6 C          59.7708   93.4574   -2.7938 C.3     1  UNL1        0.0416
      7 C          58.3342   93.8450   -2.9832 C.3     1  UNL1        0.0953
      8 F          52.0352   96.5965   -3.0326 F       1  UNL1       -0.2009
      9 C          53.4719   96.2090   -2.8432 C.ar    1  UNL1        0.1784
     10 C          54.3236   95.8817   -4.0337 C.ar    1  UNL1        0.1330
     11 N          55.7603   95.4942   -3.8443 N.ar    1  UNL1       -0.2097
     12 C          56.3451   95.4339   -2.4643 C.ar    1  UNL1        0.2203
     13 N          55.4934   95.7611   -1.2738 N.ar    1  UNL1       -0.2097
     14 C          54.0567   96.1487   -1.4633 C.ar    1  UNL1        0.1330
     15 C          63.0329   93.8993   -2.8744 C.ar    1  UNL1        0.0515
     16 C          63.5166   92.6082   -3.4653 C.ar    1  UNL1        0.0148
     17 C          64.4579   92.6239   -4.6331 C.ar    1  UNL1        0.0051
     18 C          64.9156   93.9307   -5.2099 C.ar    1  UNL1        0.0715
     19 C          64.4320   95.2218   -4.6191 C.ar    1  UNL1        0.0051
     20 C          63.4906   95.2061   -3.4513 C.ar    1  UNL1        0.0148
     21 C          65.8569   93.9463   -6.3778 C.3     1  UNL1        0.4186
     22 F          66.7982   93.9620   -7.5455 F       1  UNL1       -0.1659
     23 F          65.6993   92.4619   -6.5248 F       1  UNL1       -0.1659
     24 F          66.0145   95.4307   -6.2307 F       1  UNL1       -0.1659
     25 C          62.5870   93.4803   -0.3495 C.ar    1  UNL1        0.0710
     26 C          61.6922   92.7126    0.5779 C.ar    1  UNL1        0.0180
     27 C          62.1877   92.3094    1.9352 C.ar    1  UNL1        0.0220
     28 C          63.5778   92.6738    2.3649 C.ar    1  UNL1        0.0990
     29 N          64.4725   93.4415    1.4376 N.ar    1  UNL1       -0.2410
     30 C          63.9772   93.8448    0.0804 C.ar    1  UNL1        0.1136
@<TRIPOS>BOND
     1     8     9    1
     2     9    10   ar
     3    10    11   ar
     4    11    12   ar
     5    12     2    1
     6     2     3    1
     7     3     4    1
     8     4     5    1
     9     5     1    1
    10     1    15    1
    11    15    16   ar
    12    16    17   ar
    13    17    18   ar
    14    18    21    1
    15    21    22    1
    16    21    23    1
    17    21    24    1
    18    18    19   ar
    19    19    20   ar
    20     1    25    1
    21    25    26   ar
    22    26    27   ar
    23    27    28   ar
    24    28    29   ar
    25    29    30   ar
    26     5     6    1
    27     6     7    1
    28    12    13   ar
    29    13    14   ar
    30    14     9   ar
    31     7     2    1
    32    20    15   ar
    33    30    25   ar
@<TRIPOS>MOLECULE
*****
 30 33 0 0 0
SMALL
GASTEIGER

@<TRIPOS>ATOM
      1 N          62.6783   88.6194   12.1088 N.pl3   1  UNL1       -0.2872
      2 N          62.7686   84.1599   12.7049 N.pl3   1  UNL1       -0.2781
      3 C          63.5149   85.0577   13.6466 C.3     1  UNL1        0.0953
      4 C          63.4849   86.5442   13.4479 C.3     1  UNL1        0.0416
      5 C          62.7084   87.1329   12.3075 C.3     1  UNL1        0.0807
      6 C          61.9621   86.2351   11.3658 C.3     1  UNL1        0.0416
      7 C          61.9922   84.7486   11.5645 C.3     1  UNL1        0.0953
      8 F          62.8889   78.2140   13.4997 F       1  UNL1       -0.2009
      9 C          62.8588   79.7005   13.3010 C.ar    1  UNL1        0.1784
     10 C          62.8806   80.6165   14.4886 C.ar    1  UNL1        0.1330
     11 N          62.8505   82.1030   14.2899 N.ar    1  UNL1       -0.2097
     12 C          62.7987   82.6735   12.9036 C.ar    1  UNL1        0.2203
     13 N          62.7769   81.7575   11.7160 N.ar    1  UNL1       -0.2097
     14 C          62.8070   80.2710   11.9147 C.ar    1  UNL1        0.1330
     15 C          63.6480   89.4944   12.8464 C.ar    1  UNL1        0.0515
     16 C          64.0800   90.8023   12.2522 C.ar    1  UNL1        0.0148
     17 C          65.0497   91.6773   12.9897 C.ar    1  UNL1        0.0051
     18 C          65.5874   91.2446   14.3215 C.ar    1  UNL1        0.0715
     19 C          65.1554   89.9368   14.9157 C.ar    1  UNL1        0.0051
     20 C          64.1857   89.0617   14.1782 C.ar    1  UNL1        0.0148
     21 C          66.5571   92.1197   15.0591 C.3     1  UNL1        0.4186
     22 F          67.5268   92.9947   15.7965 F       1  UNL1       -0.1659
     23 F          65.4577   92.5635   15.9779 F       1  UNL1       -0.1659
     24 F          67.6564   91.6758   14.1402 F       1  UNL1       -0.1659
     25 C          61.6786   89.2308   11.1726 C.ar    1  UNL1        0.0710
     26 C          61.7539   88.9427    9.7024 C.ar    1  UNL1        0.0180
     27 C          60.7541   89.5542    8.7662 C.ar    1  UNL1        0.0220
     28 C          59.6790   90.4538    9.3001 C.ar    1  UNL1        0.0990
     29 N          59.6038   90.7419   10.7702 N.ar    1  UNL1       -0.2410
     30 C          60.6035   90.1304   11.7065 C.ar    1  UNL1        0.1136
@<TRIPOS>BOND
     1     8     9    1
     2     9    10   ar
     3    10    11   ar
     4    11    12   ar
     5    12     2    1
     6     2     3    1
     7     3     4    1
     8     4     5    1
     9     5     1    1
    10     1    15    1
    11    15    16   ar
    12    16    17   ar
    13    17    18   ar
    14    18    21    1
    15    21    22    1
    16    21    23    1
    17    21    24    1
    18    18    19   ar
    19    19    20   ar
    20     1    25    1
    21    25    26   ar
    22    26    27   ar
    23    27    28   ar
    24    28    29   ar
    25    29    30   ar
    26     5     6    1
    27     6     7    1
    28    12    13   ar
    29    13    14   ar
    30    14     9   ar
    31     7     2    1
    32    20    15   ar
    33    30    25   ar
