@<TRIPOS>MOLECULE
*****
 45 49 0 0 0
SMALL
GASTEIGER

@<TRIPOS>ATOM
      1 N          62.7485   89.2933   11.5827 N.3     1  UNL1       -0.2699
      2 C          63.6884   89.0701   12.7302 C.3     1  UNL1        0.0924
      3 C          63.9388   90.1695   13.7194 C.3     1  UNL1        0.0950
      4 N          64.4168   91.5101   13.2458 N.am    1  UNL1       -0.2706
      5 C          65.7607   92.0210   13.6732 C.2     1  UNL1        0.4020
      6 O          66.6266   91.1914   14.5743 O.2     1  UNL1       -0.2264
      7 H          63.8485   92.0546   12.6544 H       1  UNL1        0.1527
      8 O          66.2388   93.3616   13.1996 O.3     1  UNL1       -0.4274
      9 C          65.9354   93.8154   11.8025 C.3     1  UNL1        0.2621
     10 C          66.9053   93.5309   10.6942 C.ar    1  UNL1        0.1323
     11 N          67.8904   92.4005   10.6532 N.ar    1  UNL1       -0.2374
     12 C          68.6543   92.4978    9.3660 C.ar    1  UNL1        0.1062
     13 C          68.1413   93.6884    8.6114 C.ar    1  UNL1        0.0573
     14 S          67.0603   94.3269    9.4323 S.2     1  UNL1       -0.0666
     15 C          63.7110   89.9284   15.1823 C.3     1  UNL1        0.0474
     16 C          63.6393   88.5258   15.7090 C.ar    1  UNL1       -0.0205
     17 C          64.3008   87.4081   14.9586 C.ar    1  UNL1       -0.0042
     18 C          64.2291   86.0054   15.4853 C.ar    1  UNL1       -0.0003
     19 C          63.4958   85.7204   16.7624 C.ar    1  UNL1       -0.0000
     20 C          62.8342   86.8381   17.5128 C.ar    1  UNL1       -0.0003
     21 C          62.9060   88.2408   16.9862 C.ar    1  UNL1       -0.0042
     22 C          61.8432   90.4892   11.5765 C.3     1  UNL1        0.0721
     23 C          60.3666   90.3131   11.7741 C.3     1  UNL1        0.0160
     24 C          58.9615   90.7952   11.5659 C.3     1  UNL1        0.0014
     25 C          59.2144   89.5261   12.3245 C.3     1  UNL1        0.0014
     26 C          62.7140   88.3205   10.4414 C.3     1  UNL1        0.0924
     27 C          61.4448   87.5898   10.1169 C.3     1  UNL1        0.0950
     28 O          60.8971   86.0896    7.5773 O.2     1  UNL1       -0.2264
     29 C          60.2195   87.4031    7.8335 C.2     1  UNL1        0.4020
     30 N          60.4933   88.1532    9.1033 N.am    1  UNL1       -0.2706
     31 H          60.0485   89.0152    9.2715 H       1  UNL1        0.1527
     32 O          59.2679   87.9664    6.8199 O.3     1  UNL1       -0.4291
     33 C          58.6952   89.3395    7.0108 C.3     1  UNL1        0.2447
     34 C          58.8446   90.3710    5.9321 C.ar    1  UNL1        0.0714
     35 C          57.7283   91.1266    5.2740 C.ar    1  UNL1        0.1053
     36 N          58.3303   92.0506    4.2572 N.ar    1  UNL1       -0.2350
     37 C          59.8186   91.8662    4.2869 C.ar    1  UNL1        0.1343
     38 S          60.1365   90.8281    5.3221 S.2     1  UNL1       -0.0652
     39 C          61.1272   86.2959   10.8059 C.3     1  UNL1        0.0474
     40 C          62.2002   85.2656   10.9984 C.ar    1  UNL1       -0.0205
     41 C          62.8634   84.6416    9.8065 C.ar    1  UNL1       -0.0042
     42 C          63.9364   83.6113    9.9990 C.ar    1  UNL1       -0.0003
     43 C          64.3463   83.2049   11.3835 C.ar    1  UNL1       -0.0000
     44 C          63.6831   83.8289   12.5754 C.ar    1  UNL1       -0.0003
     45 C          62.6101   84.8592   12.3829 C.ar    1  UNL1       -0.0042
@<TRIPOS>BOND
     1    28    29    2
     2    29    30   am
     3    30    27    1
     4    27    39    1
     5    39    40    1
     6    40    41   ar
     7    41    42   ar
     8    42    43   ar
     9    43    44   ar
    10    44    45   ar
    11    27    26    1
    12    26     1    1
    13     1    22    1
    14    22    23    1
    15    23    24    1
    16    24    25    1
    17     1     2    1
    18     3     2    1
    19     3    15    1
    20    15    16    1
    21    16    17   ar
    22    17    18   ar
    23    18    19   ar
    24    19    20   ar
    25    20    21   ar
    26     3     4    1
    27     4     5   am
    28     5     6    2
    29     5     8    1
    30     8     9    1
    31     9    10    1
    32    10    11   ar
    33    11    12   ar
    34    12    13   ar
    35    13    14   ar
    36    29    32    1
    37    32    33    1
    38    33    34    1
    39    34    35   ar
    40    35    36   ar
    41    36    37   ar
    42    37    38   ar
    43    45    40   ar
    44    25    23    1
    45    21    16   ar
    46    14    10   ar
    47    38    34   ar
    48    30    31    1
    49     4     7    1
@<TRIPOS>MOLECULE
*****
 45 49 0 0 0
SMALL
GASTEIGER

@<TRIPOS>ATOM
      1 N          62.7444   89.2919   11.4747 N.3     1  UNL1       -0.2699
      2 C          62.7108   88.3026   10.3477 C.3     1  UNL1        0.0924
      3 C          61.4470   87.5539   10.0444 C.3     1  UNL1        0.0950
      4 N          60.4823   88.0911    9.0291 N.am    1  UNL1       -0.2706
      5 C          60.1802   87.3013    7.7902 C.2     1  UNL1        0.4020
      6 O          60.8426   85.9743    7.5666 O.2     1  UNL1       -0.2264
      7 H          60.0475   88.9621    9.1758 H       1  UNL1        0.1527
      8 O          59.2155   87.8385    6.7749 O.3     1  UNL1       -0.4274
      9 C          58.6539   89.2205    6.9317 C.3     1  UNL1        0.2621
     10 C          58.9641   90.2762    5.9122 C.ar    1  UNL1        0.1323
     11 N          60.3233   90.6069    5.3708 N.ar    1  UNL1       -0.2374
     12 C          60.1687   91.7217    4.3791 C.ar    1  UNL1        0.1062
     13 C          58.7139   92.0799    4.3076 C.ar    1  UNL1        0.0573
     14 S          57.9693   91.1866    5.2550 S.2     1  UNL1       -0.0666
     15 C          61.1477   86.2679   10.7563 C.3     1  UNL1        0.0474
     16 C          62.2334   85.2531   10.9599 C.ar    1  UNL1       -0.0205
     17 C          62.8783   84.5968    9.7753 C.ar    1  UNL1       -0.0042
     18 C          63.9640   83.5820    9.9789 C.ar    1  UNL1       -0.0003
     19 C          64.4048   83.2235   11.3671 C.ar    1  UNL1       -0.0000
     20 C          63.7599   83.8799   12.5518 C.ar    1  UNL1       -0.0003
     21 C          62.6742   84.8947   12.3481 C.ar    1  UNL1       -0.0042
     22 C          61.8429   90.4904   11.4477 C.3     1  UNL1        0.0721
     23 C          60.3723   90.3286   11.6953 C.3     1  UNL1        0.0160
     24 C          58.9683   90.8392   11.5604 C.3     1  UNL1        0.0014
     25 C          59.2292   89.5376   12.2588 C.3     1  UNL1        0.0014
     26 C          63.6794   89.0826   12.6288 C.3     1  UNL1        0.0924
     27 C          63.9180   90.1908   13.6112 C.3     1  UNL1        0.0950
     28 O          66.6194   91.1084   14.5390 O.2     1  UNL1       -0.2264
     29 C          65.8168   91.9641   13.6043 C.2     1  UNL1        0.4020
     30 N          64.4661   91.5053   13.1404 N.am    1  UNL1       -0.2706
     31 H          63.9394   92.0670   12.5270 H       1  UNL1        0.1527
     32 O          66.3649   93.2787   13.1336 O.3     1  UNL1       -0.4291
     33 C          65.9485   93.8316   11.8028 C.3     1  UNL1        0.2447
     34 C          66.8133   93.6143   10.5967 C.ar    1  UNL1        0.0714
     35 C          67.6425   92.3966   10.3140 C.ar    1  UNL1        0.1053
     36 N          68.3424   92.6063    9.0040 N.ar    1  UNL1       -0.2350
     37 C          67.9458   93.9535    8.4769 C.ar    1  UNL1        0.1343
     38 S          67.0008   94.5765    9.4613 S.2     1  UNL1       -0.0652
     39 C          63.6085   89.9844   15.0643 C.3     1  UNL1        0.0474
     40 C          63.5886   88.5983   15.6374 C.ar    1  UNL1       -0.0205
     41 C          62.8919   88.3350   16.9394 C.ar    1  UNL1       -0.0042
     42 C          62.8719   86.9489   17.5125 C.ar    1  UNL1       -0.0003
     43 C          63.5486   85.8262   16.7835 C.ar    1  UNL1       -0.0000
     44 C          64.2453   86.0895   15.4815 C.ar    1  UNL1       -0.0003
     45 C          64.2653   87.4755   14.9085 C.ar    1  UNL1       -0.0042
@<TRIPOS>BOND
     1    28    29    2
     2    29    30   am
     3    30    27    1
     4    27    39    1
     5    39    40    1
     6    40    41   ar
     7    41    42   ar
     8    42    43   ar
     9    43    44   ar
    10    44    45   ar
    11    27    26    1
    12    26     1    1
    13     1    22    1
    14    22    23    1
    15    23    24    1
    16    24    25    1
    17     1     2    1
    18     3     2    1
    19     3    15    1
    20    15    16    1
    21    16    17   ar
    22    17    18   ar
    23    18    19   ar
    24    19    20   ar
    25    20    21   ar
    26     3     4    1
    27     4     5   am
    28     5     6    2
    29     5     8    1
    30     8     9    1
    31     9    10    1
    32    10    11   ar
    33    11    12   ar
    34    12    13   ar
    35    13    14   ar
    36    29    32    1
    37    32    33    1
    38    33    34    1
    39    34    35   ar
    40    35    36   ar
    41    36    37   ar
    42    37    38   ar
    43    45    40   ar
    44    25    23    1
    45    21    16   ar
    46    14    10   ar
    47    38    34   ar
    48    30    31    1
    49     4     7    1
@<TRIPOS>MOLECULE
*****
 45 49 0 0 0
SMALL
GASTEIGER

@<TRIPOS>ATOM
      1 N          63.1569   90.2387   11.8691 N.3     1  UNL1       -0.2699
      2 C          62.9319   90.8772   13.2077 C.3     1  UNL1        0.0924
      3 C          63.6381   90.3465   14.4199 C.3     1  UNL1        0.0950
      4 N          63.7258   88.8667   14.6491 N.am    1  UNL1       -0.2706
      5 C          63.4622   88.3021   16.0135 C.2     1  UNL1        0.4020
      6 O          63.1108   89.2173   17.1488 O.2     1  UNL1       -0.2264
      7 H          63.9564   88.2660   13.9039 H       1  UNL1        0.1527
      8 O          63.5499   86.8223   16.2426 O.3     1  UNL1       -0.4274
      9 C          64.2786   85.9533   15.2610 C.3     1  UNL1        0.2621
     10 C          63.7668   84.5773   14.9530 C.ar    1  UNL1        0.1323
     11 N          64.5709   83.4429   14.3905 N.ar    1  UNL1       -0.2374
     12 C          63.6620   82.2587   14.2434 C.ar    1  UNL1        0.1062
     13 C          62.2962   82.6612   14.7150 C.ar    1  UNL1        0.0573
     14 S          62.3608   84.0942   15.1536 S.2     1  UNL1       -0.0666
     15 C          64.2566   91.2956   15.4032 C.3     1  UNL1        0.0474
     16 C          65.6733   91.7516   15.2160 C.ar    1  UNL1       -0.0205
     17 C          66.2929   92.6978   16.2012 C.ar    1  UNL1       -0.0042
     18 C          67.7097   93.1539   16.0141 C.ar    1  UNL1       -0.0003
     19 C          68.5067   92.6637   14.8417 C.ar    1  UNL1       -0.0000
     20 C          67.8869   91.7175   13.8565 C.ar    1  UNL1       -0.0003
     21 C          66.4703   91.2615   14.0436 C.ar    1  UNL1       -0.0042
     22 C          63.6290   91.0685   10.7122 C.3     1  UNL1        0.0721
     23 C          64.7610   92.0356   10.8954 C.3     1  UNL1        0.0160
     24 C          65.3235   93.2715   11.5326 C.3     1  UNL1        0.0014
     25 C          66.1591   92.4746   10.5753 C.3     1  UNL1        0.0014
     26 C          62.9097   88.7704   11.6874 C.3     1  UNL1        0.0924
     27 C          61.7405   88.3018   10.8731 C.3     1  UNL1        0.0950
     28 O          59.6363   87.2829    8.9931 O.2     1  UNL1       -0.2264
     29 C          60.0054   88.7368    8.9888 C.2     1  UNL1        0.4020
     30 N          61.0575   89.2462    9.9287 N.am    1  UNL1       -0.2706
     31 H          61.2998   90.2004    9.9259 H       1  UNL1        0.1527
     32 O          59.3225   89.6812    8.0444 O.3     1  UNL1       -0.4291
     33 C          59.3526   89.4180    6.5681 C.3     1  UNL1        0.2447
     34 C          59.1900   90.5526    5.6005 C.ar    1  UNL1        0.0714
     35 C          57.8969   91.2152    5.2279 C.ar    1  UNL1        0.1053
     36 N          58.1996   92.2959    4.2328 N.ar    1  UNL1       -0.2350
     37 C          59.6799   92.3013    3.9902 C.ar    1  UNL1        0.1343
     38 S          60.2920   91.2238    4.8356 S.2     1  UNL1       -0.0652
     39 C          61.2541   86.8888   11.0031 C.3     1  UNL1        0.0474
     40 C          62.1217   85.7523   10.5497 C.ar    1  UNL1       -0.0205
     41 C          62.5851   85.6846    9.1247 C.ar    1  UNL1       -0.0042
     42 C          63.4527   84.5481    8.6713 C.ar    1  UNL1       -0.0003
     43 C          63.8570   83.4793    9.6429 C.ar    1  UNL1       -0.0000
     44 C          63.3936   83.5469   11.0679 C.ar    1  UNL1       -0.0003
     45 C          62.5260   84.6835   11.5213 C.ar    1  UNL1       -0.0042
@<TRIPOS>BOND
     1    28    29    2
     2    29    30   am
     3    30    27    1
     4    27    39    1
     5    39    40    1
     6    40    41   ar
     7    41    42   ar
     8    42    43   ar
     9    43    44   ar
    10    44    45   ar
    11    27    26    1
    12    26     1    1
    13     1    22    1
    14    22    23    1
    15    23    24    1
    16    24    25    1
    17     1     2    1
    18     3     2    1
    19     3    15    1
    20    15    16    1
    21    16    17   ar
    22    17    18   ar
    23    18    19   ar
    24    19    20   ar
    25    20    21   ar
    26     3     4    1
    27     4     5   am
    28     5     6    2
    29     5     8    1
    30     8     9    1
    31     9    10    1
    32    10    11   ar
    33    11    12   ar
    34    12    13   ar
    35    13    14   ar
    36    29    32    1
    37    32    33    1
    38    33    34    1
    39    34    35   ar
    40    35    36   ar
    41    36    37   ar
    42    37    38   ar
    43    45    40   ar
    44    25    23    1
    45    21    16   ar
    46    14    10   ar
    47    38    34   ar
    48    30    31    1
    49     4     7    1
@<TRIPOS>MOLECULE
*****
 45 49 0 0 0
SMALL
GASTEIGER

@<TRIPOS>ATOM
      1 N          62.7292   89.2216   12.5735 N.3     1  UNL1       -0.2699
      2 C          63.5009   88.0651   13.1366 C.3     1  UNL1        0.0924
      3 C          64.3184   88.2440   14.3814 C.3     1  UNL1        0.0950
      4 N          64.5022   89.6123   14.9678 N.am    1  UNL1       -0.2706
      5 C          63.4524   90.1884   15.8711 C.2     1  UNL1        0.4020
      6 O          62.2188   89.3961   16.1879 O.2     1  UNL1       -0.2264
      7 H          65.3120   90.1323   14.7599 H       1  UNL1        0.1527
      8 O          63.6362   91.5567   16.4576 O.3     1  UNL1       -0.4274
      9 C          65.0128   92.1378   16.5884 C.3     1  UNL1        0.2621
     10 C          65.9124   92.2126   15.3905 C.ar    1  UNL1        0.1323
     11 N          65.5197   92.6816   14.0209 N.ar    1  UNL1       -0.2374
     12 C          66.7272   92.5903   13.1356 C.ar    1  UNL1        0.1062
     13 C          67.8662   92.0649   13.9582 C.ar    1  UNL1        0.0573
     14 S          67.3627   91.8314   15.3517 S.2     1  UNL1       -0.0666
     15 C          64.9522   87.0545   15.0398 C.3     1  UNL1        0.0474
     16 C          64.2471   85.7306   15.0354 C.ar    1  UNL1       -0.0205
     17 C          64.8420   84.5665   14.2999 C.ar    1  UNL1       -0.0042
     18 C          64.1369   83.2425   14.2955 C.ar    1  UNL1       -0.0003
     19 C          62.8369   83.0827   15.0266 C.ar    1  UNL1       -0.0000
     20 C          62.2421   84.2468   15.7621 C.ar    1  UNL1       -0.0003
     21 C          62.9472   85.5707   15.7665 C.ar    1  UNL1       -0.0042
     22 C          63.3545   90.5838   12.5163 C.3     1  UNL1        0.0721
     23 C          63.5973   91.2426   11.1907 C.3     1  UNL1        0.0160
     24 C          63.2105   91.4598    9.7578 C.3     1  UNL1        0.0014
     25 C          64.4045   92.1664   10.3277 C.3     1  UNL1        0.0014
     26 C          61.3321   89.0159   12.0676 C.3     1  UNL1        0.0924
     27 C          61.0894   88.1531   10.8648 C.3     1  UNL1        0.0950
     28 O          59.0364   87.2996    8.8507 O.2     1  UNL1       -0.2264
     29 C          60.0590   88.3349    8.4868 C.2     1  UNL1        0.4020
     30 N          61.0855   88.7617    9.4938 N.am    1  UNL1       -0.2706
     31 H          61.7566   89.4412    9.2549 H       1  UNL1        0.1527
     32 O          60.0550   88.9435    7.1157 O.3     1  UNL1       -0.4291
     33 C          58.8704   89.7377    6.6511 C.3     1  UNL1        0.2447
     34 C          59.0326   90.7619    5.5673 C.ar    1  UNL1        0.0714
     35 C          57.9275   91.5419    4.9188 C.ar    1  UNL1        0.1053
     36 N          58.5401   92.4481    3.8924 N.ar    1  UNL1       -0.2350
     37 C          60.0239   92.2283    3.9066 C.ar    1  UNL1        0.1343
     38 S          60.3282   91.1862    4.9418 S.2     1  UNL1       -0.0652
     39 C          60.8507   86.6819   11.0330 C.3     1  UNL1        0.0474
     40 C          61.8771   85.6964   10.5584 C.ar    1  UNL1       -0.0205
     41 C          62.3605   85.7418    9.1392 C.ar    1  UNL1       -0.0042
     42 C          63.3870   84.7564    8.6646 C.ar    1  UNL1       -0.0003
     43 C          63.9300   83.7255    9.6092 C.ar    1  UNL1       -0.0000
     44 C          63.4466   83.6800   11.0284 C.ar    1  UNL1       -0.0003
     45 C          62.4202   84.6655   11.5030 C.ar    1  UNL1       -0.0042
@<TRIPOS>BOND
     1    28    29    2
     2    29    30   am
     3    30    27    1
     4    27    39    1
     5    39    40    1
     6    40    41   ar
     7    41    42   ar
     8    42    43   ar
     9    43    44   ar
    10    44    45   ar
    11    27    26    1
    12    26     1    1
    13     1    22    1
    14    22    23    1
    15    23    24    1
    16    24    25    1
    17     1     2    1
    18     3     2    1
    19     3    15    1
    20    15    16    1
    21    16    17   ar
    22    17    18   ar
    23    18    19   ar
    24    19    20   ar
    25    20    21   ar
    26     3     4    1
    27     4     5   am
    28     5     6    2
    29     5     8    1
    30     8     9    1
    31     9    10    1
    32    10    11   ar
    33    11    12   ar
    34    12    13   ar
    35    13    14   ar
    36    29    32    1
    37    32    33    1
    38    33    34    1
    39    34    35   ar
    40    35    36   ar
    41    36    37   ar
    42    37    38   ar
    43    45    40   ar
    44    25    23    1
    45    21    16   ar
    46    14    10   ar
    47    38    34   ar
    48    30    31    1
    49     4     7    1
@<TRIPOS>MOLECULE
*****
 45 49 0 0 0
SMALL
GASTEIGER

@<TRIPOS>ATOM
      1 N          62.7119   90.3598   11.0829 N.3     1  UNL1       -0.2699
      2 C          61.2621   89.9751   11.0879 C.3     1  UNL1        0.0924
      3 C          60.7392   89.0081   10.0674 C.3     1  UNL1        0.0950
      4 N          60.5405   89.4501    8.6478 N.am    1  UNL1       -0.2706
      5 C          59.5456   88.7445    7.7748 C.2     1  UNL1        0.4020
      6 O          58.7494   87.5968    8.3214 O.2     1  UNL1       -0.2264
      7 H          61.0632   90.2034    8.2891 H       1  UNL1        0.1527
      8 O          59.3470   89.1865    6.3553 O.3     1  UNL1       -0.4274
      9 C          58.8585   90.5743    6.0633 C.3     1  UNL1        0.2621
     10 C          59.4720   91.3660    4.9467 C.ar    1  UNL1        0.1323
     11 N          58.7560   92.3419    4.0608 N.ar    1  UNL1       -0.2374
     12 C          59.7508   92.8998    3.0865 C.ar    1  UNL1        0.1062
     13 C          61.0816   92.2686    3.3702 C.ar    1  UNL1        0.0573
     14 S          60.9094   91.3206    4.5199 S.2     1  UNL1       -0.0666
     15 C          60.4150   87.5989   10.4665 C.3     1  UNL1        0.0474
     16 C          61.4261   86.5100   10.2619 C.ar    1  UNL1       -0.0205
     17 C          61.8410   85.6455   11.4154 C.ar    1  UNL1       -0.0042
     18 C          62.8521   84.5565   11.2108 C.ar    1  UNL1       -0.0003
     19 C          63.4483   84.3320    9.8528 C.ar    1  UNL1       -0.0000
     20 C          63.0334   85.1966    8.6994 C.ar    1  UNL1       -0.0003
     21 C          62.0223   86.2855    8.9039 C.ar    1  UNL1       -0.0042
     22 C          63.1595   91.5875   10.3465 C.3     1  UNL1        0.0721
     23 C          64.4830   92.2153   10.6699 C.3     1  UNL1        0.0160
     24 C          65.9683   92.2892   10.4739 C.3     1  UNL1        0.0014
     25 C          65.2898   93.2288   11.4261 C.3     1  UNL1        0.0014
     26 C          63.7141   89.5168   11.8142 C.3     1  UNL1        0.0924
     27 C          63.8181   89.6020   13.3082 C.3     1  UNL1        0.0950
     28 O          62.5126   89.4849   16.0067 O.2     1  UNL1       -0.2264
     29 C          63.2469   88.2893   15.4763 C.2     1  UNL1        0.4020
     30 N          63.8996   88.3478   14.1271 N.am    1  UNL1       -0.2706
     31 H          64.3816   87.5631   13.7789 H       1  UNL1        0.1527
     32 O          63.3285   87.0352   16.2952 O.3     1  UNL1       -0.4291
     33 C          64.2737   85.9403   15.8980 C.3     1  UNL1        0.2447
     34 C          63.7426   84.6710   15.3008 C.ar    1  UNL1        0.0714
     35 C          64.5439   83.6434   14.5577 C.ar    1  UNL1        0.1053
     36 N          63.6135   82.5436   14.1395 N.ar    1  UNL1       -0.2350
     37 C          62.2372   82.8915   14.6241 C.ar    1  UNL1        0.1343
     38 S          62.3170   84.2062   15.3419 S.2     1  UNL1       -0.0652
     39 C          63.8405   90.9413   13.9833 C.3     1  UNL1        0.0474
     40 C          65.1028   91.4371   14.6242 C.ar    1  UNL1       -0.0205
     41 C          66.4260   91.1947   13.9608 C.ar    1  UNL1       -0.0042
     42 C          67.6883   91.6905   14.6017 C.ar    1  UNL1       -0.0003
     43 C          67.6273   92.4287   15.9061 C.ar    1  UNL1       -0.0000
     44 C          66.3041   92.6711   16.5695 C.ar    1  UNL1       -0.0003
     45 C          65.0418   92.1753   15.9285 C.ar    1  UNL1       -0.0042
@<TRIPOS>BOND
     1    28    29    2
     2    29    30   am
     3    30    27    1
     4    27    39    1
     5    39    40    1
     6    40    41   ar
     7    41    42   ar
     8    42    43   ar
     9    43    44   ar
    10    44    45   ar
    11    27    26    1
    12    26     1    1
    13     1    22    1
    14    22    23    1
    15    23    24    1
    16    24    25    1
    17     1     2    1
    18     3     2    1
    19     3    15    1
    20    15    16    1
    21    16    17   ar
    22    17    18   ar
    23    18    19   ar
    24    19    20   ar
    25    20    21   ar
    26     3     4    1
    27     4     5   am
    28     5     6    2
    29     5     8    1
    30     8     9    1
    31     9    10    1
    32    10    11   ar
    33    11    12   ar
    34    12    13   ar
    35    13    14   ar
    36    29    32    1
    37    32    33    1
    38    33    34    1
    39    34    35   ar
    40    35    36   ar
    41    36    37   ar
    42    37    38   ar
    43    45    40   ar
    44    25    23    1
    45    21    16   ar
    46    14    10   ar
    47    38    34   ar
    48    30    31    1
    49     4     7    1
@<TRIPOS>MOLECULE
*****
 45 49 0 0 0
SMALL
GASTEIGER

@<TRIPOS>ATOM
      1 N          64.1244   87.5346   14.8925 N.3     1  UNL1       -0.2699
      2 C          64.6689   86.1369   14.9015 C.3     1  UNL1        0.0924
      3 C          63.8318   85.0027   14.3891 C.3     1  UNL1        0.0950
      4 N          62.6274   85.2832   13.5402 N.am    1  UNL1       -0.2706
      5 C          62.6810   85.0451   12.0602 C.2     1  UNL1        0.4020
      6 O          63.9391   84.5266   11.4291 O.2     1  UNL1       -0.2264
      7 H          61.8016   85.6235   13.9544 H       1  UNL1        0.1527
      8 O          61.4766   85.3257   11.2113 O.3     1  UNL1       -0.4274
      9 C          61.5848   86.2565   10.0401 C.3     1  UNL1        0.2621
     10 C          61.7183   85.7034    8.6522 C.ar    1  UNL1        0.1323
     11 N          62.9466   85.0689    8.0703 N.ar    1  UNL1       -0.2374
     12 C          62.6344   84.6610    6.6610 C.ar    1  UNL1        0.1062
     13 C          61.2130   85.0434    6.3719 C.ar    1  UNL1        0.0573
     14 S          60.6468   85.6876    7.6025 S.2     1  UNL1       -0.0666
     15 C          64.1991   83.5877   14.7257 C.3     1  UNL1        0.0474
     16 C          63.3621   82.4534   14.2131 C.ar    1  UNL1       -0.0205
     17 C          63.9119   81.5280   13.1686 C.ar    1  UNL1       -0.0042
     18 C          63.0749   80.3936   12.6560 C.ar    1  UNL1       -0.0003
     19 C          61.6880   80.1847   13.1881 C.ar    1  UNL1       -0.0000
     20 C          61.1382   81.1103   14.2327 C.ar    1  UNL1       -0.0003
     21 C          61.9752   82.2446   14.7452 C.ar    1  UNL1       -0.0042
     22 C          63.5370   88.1187   16.1430 C.3     1  UNL1        0.0721
     23 C          62.9391   87.2178   17.1826 C.3     1  UNL1        0.0160
     24 C          62.1439   85.9978   17.5425 C.3     1  UNL1        0.0014
     25 C          62.6987   86.8772   18.6235 C.3     1  UNL1        0.0014
     26 C          64.1674   88.3482   13.6331 C.3     1  UNL1        0.0924
     27 C          64.0213   89.8396   13.6983 C.3     1  UNL1        0.0950
     28 O          63.8026   91.6849   16.0535 O.2     1  UNL1       -0.2264
     29 C          65.0814   91.6138   15.2726 C.2     1  UNL1        0.4020
     30 N          65.1907   90.6912   14.0950 N.am    1  UNL1       -0.2706
     31 H          66.0300   90.6445   13.5825 H       1  UNL1        0.1527
     32 O          66.2508   92.4654   15.6693 O.3     1  UNL1       -0.4291
     33 C          66.7592   93.5234   14.7355 C.3     1  UNL1        0.2447
     34 C          66.9267   93.2183   13.2764 C.ar    1  UNL1        0.0714
     35 C          67.8663   92.2071   12.6893 C.ar    1  UNL1        0.1053
     36 N          67.7043   92.2347   11.1983 N.ar    1  UNL1       -0.2350
     37 C          66.6646   93.2630   10.8639 C.ar    1  UNL1        0.1343
     38 S          66.1840   93.8709   12.1483 S.2     1  UNL1       -0.0652
     39 C          62.7057   90.4795   13.3667 C.3     1  UNL1        0.0474
     40 C          62.0334   90.1783   12.0601 C.ar    1  UNL1       -0.0205
     41 C          60.5821   89.8001   12.0331 C.ar    1  UNL1       -0.0042
     42 C          59.9098   89.4990   10.7265 C.ar    1  UNL1       -0.0003
     43 C          60.6886   89.5761    9.4469 C.ar    1  UNL1       -0.0000
     44 C          62.1399   89.9543    9.4739 C.ar    1  UNL1       -0.0003
     45 C          62.8122   90.2554   10.7805 C.ar    1  UNL1       -0.0042
@<TRIPOS>BOND
     1    28    29    2
     2    29    30   am
     3    30    27    1
     4    27    39    1
     5    39    40    1
     6    40    41   ar
     7    41    42   ar
     8    42    43   ar
     9    43    44   ar
    10    44    45   ar
    11    27    26    1
    12    26     1    1
    13     1    22    1
    14    22    23    1
    15    23    24    1
    16    24    25    1
    17     1     2    1
    18     3     2    1
    19     3    15    1
    20    15    16    1
    21    16    17   ar
    22    17    18   ar
    23    18    19   ar
    24    19    20   ar
    25    20    21   ar
    26     3     4    1
    27     4     5   am
    28     5     6    2
    29     5     8    1
    30     8     9    1
    31     9    10    1
    32    10    11   ar
    33    11    12   ar
    34    12    13   ar
    35    13    14   ar
    36    29    32    1
    37    32    33    1
    38    33    34    1
    39    34    35   ar
    40    35    36   ar
    41    36    37   ar
    42    37    38   ar
    43    45    40   ar
    44    25    23    1
    45    21    16   ar
    46    14    10   ar
    47    38    34   ar
    48    30    31    1
    49     4     7    1
@<TRIPOS>MOLECULE
*****
 45 49 0 0 0
SMALL
GASTEIGER

@<TRIPOS>ATOM
      1 N          62.3562   88.2492   11.9929 N.3     1  UNL1       -0.2699
      2 C          61.7741   86.8994   11.6943 C.3     1  UNL1        0.0924
      3 C          62.4229   86.0118   10.6740 C.3     1  UNL1        0.0950
      4 N          63.0897   84.7385   11.1030 N.am    1  UNL1       -0.2706
      5 C          63.6748   83.8152   10.0758 C.2     1  UNL1        0.4020
      6 O          63.5929   84.1652    8.6195 O.2     1  UNL1       -0.2264
      7 H          63.1434   84.5088   12.0588 H       1  UNL1        0.1527
      8 O          64.3416   82.5419   10.5049 O.3     1  UNL1       -0.4274
      9 C          64.5623   82.2652   11.9624 C.3     1  UNL1        0.2621
     10 C          63.3977   81.9339   12.8478 C.ar    1  UNL1        0.1323
     11 N          62.7412   82.8629   13.8255 N.ar    1  UNL1       -0.2374
     12 C          61.6227   82.1187   14.4928 C.ar    1  UNL1        0.1062
     13 C          61.5880   80.7298   13.9275 C.ar    1  UNL1        0.0573
     14 S          62.6850   80.6155   12.9108 S.2     1  UNL1       -0.0666
     15 C          62.4049   86.3975    9.2245 C.3     1  UNL1        0.0474
     16 C          61.1721   87.0072    8.6258 C.ar    1  UNL1       -0.0205
     17 C          61.0142   88.4984    8.5908 C.ar    1  UNL1       -0.0042
     18 C          59.7814   89.1082    7.9921 C.ar    1  UNL1       -0.0003
     19 C          58.7065   88.2268    7.4285 C.ar    1  UNL1       -0.0000
     20 C          58.8645   86.7355    7.4636 C.ar    1  UNL1       -0.0003
     21 C          60.0973   86.1257    8.0623 C.ar    1  UNL1       -0.0042
     22 C          61.6624   89.4885   11.5106 C.3     1  UNL1        0.0721
     23 C          60.2091   89.7014   11.8155 C.3     1  UNL1        0.0160
     24 C          58.9677   90.5362   11.7067 C.3     1  UNL1        0.0014
     25 C          58.9336   89.2352   12.4524 C.3     1  UNL1        0.0014
     26 C          63.6321   88.3596   12.7738 C.3     1  UNL1        0.0924
     27 C          63.9079   89.5874   13.5902 C.3     1  UNL1        0.0950
     28 O          66.3216   91.3550   13.8123 O.2     1  UNL1       -0.2264
     29 C          65.1184   91.8213   13.0476 C.2     1  UNL1        0.4020
     30 N          63.9115   90.9375   12.9365 N.am    1  UNL1       -0.2706
     31 H          63.1218   91.2436   12.4346 H       1  UNL1        0.1527
     32 O          65.1220   93.1715   12.3940 O.3     1  UNL1       -0.4291
     33 C          66.4227   93.8536   12.0891 C.3     1  UNL1        0.2447
     34 C          67.0903   93.6371   10.7634 C.ar    1  UNL1        0.0714
     35 C          67.1556   94.6257    9.6372 C.ar    1  UNL1        0.1053
     36 N          67.9156   93.9936    8.5089 N.ar    1  UNL1       -0.2350
     37 C          68.3200   92.6143    8.9378 C.ar    1  UNL1        0.1343
     38 S          67.8099   92.3939   10.3312 S.2     1  UNL1       -0.0652
     39 C          64.1800   89.4650   15.0602 C.3     1  UNL1        0.0474
     40 C          63.8087   88.2081   15.7896 C.ar    1  UNL1       -0.0205
     41 C          62.9673   88.2810   17.0293 C.ar    1  UNL1       -0.0042
     42 C          62.5960   87.0240   17.7587 C.ar    1  UNL1       -0.0003
     43 C          63.0660   85.6941   17.2485 C.ar    1  UNL1       -0.0000
     44 C          63.9073   85.6211   16.0088 C.ar    1  UNL1       -0.0003
     45 C          64.2786   86.8781   15.2794 C.ar    1  UNL1       -0.0042
@<TRIPOS>BOND
     1    28    29    2
     2    29    30   am
     3    30    27    1
     4    27    39    1
     5    39    40    1
     6    40    41   ar
     7    41    42   ar
     8    42    43   ar
     9    43    44   ar
    10    44    45   ar
    11    27    26    1
    12    26     1    1
    13     1    22    1
    14    22    23    1
    15    23    24    1
    16    24    25    1
    17     1     2    1
    18     3     2    1
    19     3    15    1
    20    15    16    1
    21    16    17   ar
    22    17    18   ar
    23    18    19   ar
    24    19    20   ar
    25    20    21   ar
    26     3     4    1
    27     4     5   am
    28     5     6    2
    29     5     8    1
    30     8     9    1
    31     9    10    1
    32    10    11   ar
    33    11    12   ar
    34    12    13   ar
    35    13    14   ar
    36    29    32    1
    37    32    33    1
    38    33    34    1
    39    34    35   ar
    40    35    36   ar
    41    36    37   ar
    42    37    38   ar
    43    45    40   ar
    44    25    23    1
    45    21    16   ar
    46    14    10   ar
    47    38    34   ar
    48    30    31    1
    49     4     7    1
@<TRIPOS>MOLECULE
*****
 45 49 0 0 0
SMALL
GASTEIGER

@<TRIPOS>ATOM
      1 N          62.4445   88.6779   11.9529 N.3     1  UNL1       -0.2699
      2 C          61.8376   87.4371   11.3679 C.3     1  UNL1        0.0924
      3 C          61.7969   87.2519    9.8799 C.3     1  UNL1        0.0950
      4 N          60.9502   88.1565    9.0344 N.am    1  UNL1       -0.2706
      5 C          59.9070   87.5754    8.1268 C.2     1  UNL1        0.4020
      6 O          59.7104   86.0896    8.0647 O.2     1  UNL1       -0.2264
      7 H          61.0793   89.1317    9.0752 H       1  UNL1        0.1527
      8 O          59.0603   88.4799    7.2813 O.3     1  UNL1       -0.4274
      9 C          59.6526   89.7242    6.6888 C.3     1  UNL1        0.2621
     10 C          58.8291   90.5872    5.7794 C.ar    1  UNL1        0.1323
     11 N          57.3317   90.6727    5.7620 N.ar    1  UNL1       -0.2374
     12 C          56.9356   91.6547    4.6996 C.ar    1  UNL1        0.1062
     13 C          58.1883   92.1762    4.0602 C.ar    1  UNL1        0.0573
     14 S          59.3587   91.5165    4.7276 S.2     1  UNL1       -0.0666
     15 C          62.6029   86.1621    9.2374 C.3     1  UNL1        0.0474
     16 C          62.8912   84.8982    9.9920 C.ar    1  UNL1       -0.0205
     17 C          62.1730   84.6116   11.2773 C.ar    1  UNL1       -0.0042
     18 C          62.4612   83.3477   12.0319 C.ar    1  UNL1       -0.0003
     19 C          63.4677   82.3703   11.5011 C.ar    1  UNL1       -0.0000
     20 C          64.1859   82.6569   10.2157 C.ar    1  UNL1       -0.0003
     21 C          63.8977   83.9208    9.4612 C.ar    1  UNL1       -0.0042
     22 C          61.7087   89.9825   11.8723 C.3     1  UNL1        0.0721
     23 C          60.2107   90.0046   11.9469 C.3     1  UNL1        0.0160
     24 C          58.9212   89.3615   12.3636 C.3     1  UNL1        0.0014
     25 C          58.9056   90.6858   11.6595 C.3     1  UNL1        0.0014
     26 C          63.7872   88.6140   12.6185 C.3     1  UNL1        0.0924
     27 C          64.0372   89.3884   13.8786 C.3     1  UNL1        0.0950
     28 O          61.7618   89.5452   15.8274 O.2     1  UNL1       -0.2264
     29 C          62.9877   88.7509   16.1682 C.2     1  UNL1        0.4020
     30 N          64.1254   88.6724   15.1938 N.am    1  UNL1       -0.2706
     31 H          64.9300   88.1511   15.4175 H       1  UNL1        0.1527
     32 O          63.0759   88.0349   17.4834 O.3     1  UNL1       -0.4291
     33 C          62.6122   86.6129   17.5958 C.3     1  UNL1        0.2447
     34 C          63.0516   85.5984   16.5821 C.ar    1  UNL1        0.0714
     35 C          64.4024   85.5280   15.9335 C.ar    1  UNL1        0.1053
     36 N          64.4032   84.3623   14.9895 N.ar    1  UNL1       -0.2350
     37 C          63.0528   83.7122   15.0546 C.ar    1  UNL1        0.1343
     38 S          62.2176   84.4762   16.0389 S.2     1  UNL1       -0.0652
     39 C          64.1991   90.8786   13.8235 C.3     1  UNL1        0.0474
     40 C          65.4217   91.5223   14.4074 C.ar    1  UNL1       -0.0205
     41 C          65.3908   92.0582   15.8080 C.ar    1  UNL1       -0.0042
     42 C          66.6134   92.7019   16.3918 C.ar    1  UNL1       -0.0003
     43 C          67.8669   92.8097   15.5751 C.ar    1  UNL1       -0.0000
     44 C          67.8978   92.2738   14.1745 C.ar    1  UNL1       -0.0003
     45 C          66.6752   91.6300   13.5906 C.ar    1  UNL1       -0.0042
@<TRIPOS>BOND
     1    28    29    2
     2    29    30   am
     3    30    27    1
     4    27    39    1
     5    39    40    1
     6    40    41   ar
     7    41    42   ar
     8    42    43   ar
     9    43    44   ar
    10    44    45   ar
    11    27    26    1
    12    26     1    1
    13     1    22    1
    14    22    23    1
    15    23    24    1
    16    24    25    1
    17     1     2    1
    18     3     2    1
    19     3    15    1
    20    15    16    1
    21    16    17   ar
    22    17    18   ar
    23    18    19   ar
    24    19    20   ar
    25    20    21   ar
    26     3     4    1
    27     4     5   am
    28     5     6    2
    29     5     8    1
    30     8     9    1
    31     9    10    1
    32    10    11   ar
    33    11    12   ar
    34    12    13   ar
    35    13    14   ar
    36    29    32    1
    37    32    33    1
    38    33    34    1
    39    34    35   ar
    40    35    36   ar
    41    36    37   ar
    42    37    38   ar
    43    45    40   ar
    44    25    23    1
    45    21    16   ar
    46    14    10   ar
    47    38    34   ar
    48    30    31    1
    49     4     7    1
@<TRIPOS>MOLECULE
*****
 45 49 0 0 0
SMALL
GASTEIGER

@<TRIPOS>ATOM
      1 N          62.4404   89.7032   11.2775 N.3     1  UNL1       -0.2699
      2 C          62.4130   89.0913    9.9082 C.3     1  UNL1        0.0924
      3 C          61.1023   88.7322    9.2734 C.3     1  UNL1        0.0950
      4 N          60.2697   89.7946    8.6191 N.am    1  UNL1       -0.2706
      5 C          59.4734   89.4722    7.3895 C.2     1  UNL1        0.4020
      6 O          59.5096   88.0874    6.8142 O.2     1  UNL1       -0.2264
      7 H          60.2460   90.7035    8.9967 H       1  UNL1        0.1527
      8 O          58.6408   90.5347    6.7352 O.3     1  UNL1       -0.4274
      9 C          58.5155   90.5751    5.2410 C.3     1  UNL1        0.2621
     10 C          59.4552   91.4193    4.4321 C.ar    1  UNL1        0.1323
     11 N          59.0692   92.5654    3.5448 N.ar    1  UNL1       -0.2374
     12 C          60.3214   93.1200    2.9328 C.ar    1  UNL1        0.1062
     13 C          61.4813   92.3165    3.4418 C.ar    1  UNL1        0.0573
     14 S          60.9460   91.2654    4.3685 S.2     1  UNL1       -0.0666
     15 C          60.6241   87.3105    9.2928 C.3     1  UNL1        0.0474
     16 C          61.5803   86.2020    9.6198 C.ar    1  UNL1       -0.0205
     17 C          62.4727   85.6421    8.5521 C.ar    1  UNL1       -0.0042
     18 C          63.4289   84.5335    8.8790 C.ar    1  UNL1       -0.0003
     19 C          63.4926   83.9850   10.2737 C.ar    1  UNL1       -0.0000
     20 C          62.6001   84.5450   11.3414 C.ar    1  UNL1       -0.0003
     21 C          61.6440   85.6535   11.0144 C.ar    1  UNL1       -0.0042
     22 C          61.4074   89.3148   12.2934 C.3     1  UNL1        0.0721
     23 C          59.9862   89.7651   12.1278 C.3     1  UNL1        0.0160
     24 C          58.9948   90.8053   11.6974 C.3     1  UNL1        0.0014
     25 C          58.5160   89.5050   12.2716 C.3     1  UNL1        0.0014
     26 C          63.5008   90.7034   11.6309 C.3     1  UNL1        0.0924
     27 C          64.1289   90.6810   12.9929 C.3     1  UNL1        0.0950
     28 O          62.6106   89.9994   15.4890 O.2     1  UNL1       -0.2264
     29 C          63.6131   89.0319   14.9332 C.2     1  UNL1        0.4020
     30 N          64.3723   89.3727   13.6852 N.am    1  UNL1       -0.2706
     31 H          65.0303   88.7377   13.3204 H       1  UNL1        0.1527
     32 O          63.8565   87.7236   15.6254 O.3     1  UNL1       -0.4291
     33 C          64.6627   86.6553   14.9482 C.3     1  UNL1        0.2447
     34 C          64.1410   85.2506   14.8821 C.ar    1  UNL1        0.0714
     35 C          64.8000   84.0971   14.1853 C.ar    1  UNL1        0.1053
     36 N          63.9350   82.8862   14.3737 N.ar    1  UNL1       -0.2350
     37 C          62.7414   83.2912   15.1869 C.ar    1  UNL1        0.1343
     38 S          62.8687   84.7525   15.5011 S.2     1  UNL1       -0.0652
     39 C          64.5136   91.9669   13.6626 C.3     1  UNL1        0.0474
     40 C          65.8767   92.1174   14.2704 C.ar    1  UNL1       -0.0205
     41 C          66.0166   92.4128   15.7343 C.ar    1  UNL1       -0.0042
     42 C          67.3797   92.5634   16.3421 C.ar    1  UNL1       -0.0003
     43 C          68.6028   92.4185   15.4860 C.ar    1  UNL1       -0.0000
     44 C          68.4628   92.1231   14.0221 C.ar    1  UNL1       -0.0003
     45 C          67.0998   91.9725   13.4143 C.ar    1  UNL1       -0.0042
@<TRIPOS>BOND
     1    28    29    2
     2    29    30   am
     3    30    27    1
     4    27    39    1
     5    39    40    1
     6    40    41   ar
     7    41    42   ar
     8    42    43   ar
     9    43    44   ar
    10    44    45   ar
    11    27    26    1
    12    26     1    1
    13     1    22    1
    14    22    23    1
    15    23    24    1
    16    24    25    1
    17     1     2    1
    18     3     2    1
    19     3    15    1
    20    15    16    1
    21    16    17   ar
    22    17    18   ar
    23    18    19   ar
    24    19    20   ar
    25    20    21   ar
    26     3     4    1
    27     4     5   am
    28     5     6    2
    29     5     8    1
    30     8     9    1
    31     9    10    1
    32    10    11   ar
    33    11    12   ar
    34    12    13   ar
    35    13    14   ar
    36    29    32    1
    37    32    33    1
    38    33    34    1
    39    34    35   ar
    40    35    36   ar
    41    36    37   ar
    42    37    38   ar
    43    45    40   ar
    44    25    23    1
    45    21    16   ar
    46    14    10   ar
    47    38    34   ar
    48    30    31    1
    49     4     7    1
