@<TRIPOS>MOLECULE
*****
 26 28 0 0 0
SMALL
GASTEIGER

@<TRIPOS>ATOM
      1 C          65.0562   92.1002   12.7327 C.ar    1  UNL1        0.1453
      2 C          63.9773   91.2048   12.1994 C.ar    1  UNL1        0.0376
      3 C          63.6119   89.9501   12.9357 C.ar    1  UNL1        0.0076
      4 C          64.3254   89.5906   14.2052 C.ar    1  UNL1        0.0536
      5 C          65.4043   90.4859   14.7385 C.ar    1  UNL1        0.0076
      6 C          65.7697   91.7407   14.0022 C.ar    1  UNL1        0.0376
      7 C          63.9600   88.3359   14.9415 C.2     1  UNL1        0.2461
      8 O          63.2997   88.4203   16.2857 O.2     1  UNL1       -0.2701
      9 N          64.2549   86.9967   14.3335 N.am    1  UNL1       -0.2969
     10 H          64.6883   86.9412   13.4513 H       1  UNL1        0.1501
     11 C          63.8895   85.7419   15.0698 C.3     1  UNL1        0.1166
     12 C          63.3775   84.5514   14.3146 C.ar    1  UNL1       -0.0026
     13 C          62.8977   83.3407   15.0589 C.ar    1  UNL1       -0.0026
     14 C          62.3856   82.1501   14.3036 C.ar    1  UNL1       -0.0003
     15 C          62.3534   82.1702   12.8041 C.ar    1  UNL1       -0.0000
     16 C          62.8332   83.3809   12.0598 C.ar    1  UNL1       -0.0003
     17 C          63.3452   84.5715   12.8150 C.ar    1  UNL1       -0.0026
     18 O          65.4216   93.3549   11.9965 O.3     1  UNL1       -0.4528
     19 C          66.5788   94.4619    9.9506 C.ar    1  UNL1        0.1029
     20 C          67.6061   94.4185    8.8585 C.ar    1  UNL1        0.0134
     21 C          68.5036   93.2246    8.7201 C.ar    1  UNL1        0.0009
     22 C          68.3737   92.0741    9.6738 C.ar    1  UNL1        0.0032
     23 C          67.3464   92.1176   10.7659 C.ar    1  UNL1        0.0382
     24 C          66.4490   93.3115   10.9043 C.ar    1  UNL1        0.1548
     25 N          64.7838   96.8497   10.2274 N.1     1  UNL1       -0.1907
     26 C          65.6813   95.6558   10.0890 C.1     1  UNL1        0.1035
@<TRIPOS>BOND
     1    25    26    3
     2    26    19    1
     3    19    20   ar
     4    20    21   ar
     5    21    22   ar
     6    22    23   ar
     7    23    24   ar
     8    24    18    1
     9    18     1    1
    10     1     2   ar
    11     2     3   ar
    12     3     4   ar
    13     4     7    1
    14     7     8    2
    15     7     9   am
    16     9    11    1
    17    11    12    1
    18    12    13   ar
    19    13    14   ar
    20    14    15   ar
    21    15    16   ar
    22    16    17   ar
    23     4     5   ar
    24     5     6   ar
    25    24    19   ar
    26     6     1   ar
    27    17    12   ar
    28     9    10    1
@<TRIPOS>MOLECULE
*****
 26 28 0 0 0
SMALL
GASTEIGER

@<TRIPOS>ATOM
      1 C          63.9076   90.0469   15.5707 C.ar    1  UNL1        0.1453
      2 C          64.4810   89.1483   14.5154 C.ar    1  UNL1        0.0376
      3 C          64.3026   87.6625   14.6175 C.ar    1  UNL1        0.0076
      4 C          63.5506   87.0752   15.7749 C.ar    1  UNL1        0.0536
      5 C          62.9772   87.9737   16.8303 C.ar    1  UNL1        0.0076
      6 C          63.1556   89.4596   16.7282 C.ar    1  UNL1        0.0376
      7 C          63.3722   85.5894   15.8771 C.2     1  UNL1        0.2461
      8 O          62.4146   85.0162   16.8793 O.2     1  UNL1       -0.2701
      9 N          64.1513   84.6768   14.9770 N.am    1  UNL1       -0.2969
     10 H          64.7798   85.0530   14.3192 H       1  UNL1        0.1501
     11 C          63.9728   83.1910   15.0791 C.3     1  UNL1        0.1166
     12 C          63.6045   82.3945   13.8626 C.ar    1  UNL1       -0.0026
     13 C          62.8708   81.0946   14.0111 C.ar    1  UNL1       -0.0026
     14 C          62.5025   80.2981   12.7945 C.ar    1  UNL1       -0.0003
     15 C          62.8678   80.8015   11.4295 C.ar    1  UNL1       -0.0000
     16 C          63.6014   82.1014   11.2811 C.ar    1  UNL1       -0.0003
     17 C          63.9698   82.8979   12.4976 C.ar    1  UNL1       -0.0026
     18 O          64.0860   91.5327   15.4686 O.3     1  UNL1       -0.4528
     19 C          65.9643   92.3385   13.8645 C.ar    1  UNL1        0.1029
     20 C          67.3320   92.9167   13.6525 C.ar    1  UNL1        0.0134
     21 C          68.1891   93.2676   14.8324 C.ar    1  UNL1        0.0009
     22 C          67.6786   93.0402   16.2244 C.ar    1  UNL1        0.0032
     23 C          66.3109   92.4619   16.4364 C.ar    1  UNL1        0.0382
     24 C          65.4538   92.1110   15.2565 C.ar    1  UNL1        0.1548
     25 N          64.2500   91.6367   11.5047 N.1     1  UNL1       -0.1907
     26 C          65.1072   91.9876   12.6846 C.1     1  UNL1        0.1035
@<TRIPOS>BOND
     1    25    26    3
     2    26    19    1
     3    19    20   ar
     4    20    21   ar
     5    21    22   ar
     6    22    23   ar
     7    23    24   ar
     8    24    18    1
     9    18     1    1
    10     1     2   ar
    11     2     3   ar
    12     3     4   ar
    13     4     7    1
    14     7     8    2
    15     7     9   am
    16     9    11    1
    17    11    12    1
    18    12    13   ar
    19    13    14   ar
    20    14    15   ar
    21    15    16   ar
    22    16    17   ar
    23     4     5   ar
    24     5     6   ar
    25    24    19   ar
    26     6     1   ar
    27    17    12   ar
    28     9    10    1
@<TRIPOS>MOLECULE
*****
 26 28 0 0 0
SMALL
GASTEIGER

@<TRIPOS>ATOM
      1 C          64.2242   90.4455   15.1497 C.ar    1  UNL1        0.1453
      2 C          64.6262   89.2969   14.2726 C.ar    1  UNL1        0.0376
      3 C          64.2433   87.8962   14.6488 C.ar    1  UNL1        0.0076
      4 C          63.4585   87.6441   15.9020 C.ar    1  UNL1        0.0536
      5 C          63.0566   88.7926   16.7791 C.ar    1  UNL1        0.0076
      6 C          63.4394   90.1933   16.4029 C.ar    1  UNL1        0.0376
      7 C          63.0757   86.2434   16.2782 C.2     1  UNL1        0.2461
      8 O          62.6736   85.9289   17.6886 O.2     1  UNL1       -0.2701
      9 N          63.0950   85.1571   15.2439 N.am    1  UNL1       -0.2969
     10 H          63.3590   85.3635   14.3181 H       1  UNL1        0.1501
     11 C          62.7122   83.7565   15.6200 C.3     1  UNL1        0.1166
     12 C          62.7277   82.6711   14.5848 C.ar    1  UNL1       -0.0026
     13 C          61.6225   81.6577   14.5440 C.ar    1  UNL1       -0.0026
     14 C          61.6380   80.5723   13.5088 C.ar    1  UNL1       -0.0003
     15 C          62.7587   80.5003   12.5143 C.ar    1  UNL1       -0.0000
     16 C          63.8638   81.5137   12.5551 C.ar    1  UNL1       -0.0003
     17 C          63.8484   82.5991   13.5903 C.ar    1  UNL1       -0.0026
     18 O          64.6070   91.8461   14.7735 O.3     1  UNL1       -0.4528
     19 C          66.8257   92.2955   13.4985 C.ar    1  UNL1        0.1029
     20 C          67.5566   92.5541   12.2145 C.ar    1  UNL1        0.0134
     21 C          66.7997   92.6218   10.9212 C.ar    1  UNL1        0.0009
     22 C          65.3119   92.4310   10.9120 C.ar    1  UNL1        0.0032
     23 C          64.5810   92.1724   12.1961 C.ar    1  UNL1        0.0382
     24 C          65.3379   92.1047   13.4894 C.ar    1  UNL1        0.1548
     25 N          68.3395   92.1600   16.0851 N.1     1  UNL1       -0.1907
     26 C          67.5826   92.2278   14.7918 C.1     1  UNL1        0.1035
@<TRIPOS>BOND
     1    25    26    3
     2    26    19    1
     3    19    20   ar
     4    20    21   ar
     5    21    22   ar
     6    22    23   ar
     7    23    24   ar
     8    24    18    1
     9    18     1    1
    10     1     2   ar
    11     2     3   ar
    12     3     4   ar
    13     4     7    1
    14     7     8    2
    15     7     9   am
    16     9    11    1
    17    11    12    1
    18    12    13   ar
    19    13    14   ar
    20    14    15   ar
    21    15    16   ar
    22    16    17   ar
    23     4     5   ar
    24     5     6   ar
    25    24    19   ar
    26     6     1   ar
    27    17    12   ar
    28     9    10    1
@<TRIPOS>MOLECULE
*****
 26 28 0 0 0
SMALL
GASTEIGER

@<TRIPOS>ATOM
      1 C          64.0382   91.0384   12.9066 C.ar    1  UNL1        0.1453
      2 C          63.2960   90.9807   11.6043 C.ar    1  UNL1        0.0376
      3 C          62.7401   89.6763   11.1150 C.ar    1  UNL1        0.0076
      4 C          62.9264   88.4295   11.9279 C.ar    1  UNL1        0.0536
      5 C          63.6686   88.4871   13.2301 C.ar    1  UNL1        0.0076
      6 C          64.2245   89.7916   13.7195 C.ar    1  UNL1        0.0376
      7 C          62.3705   87.1251   11.4386 C.2     1  UNL1        0.2461
      8 O          61.1066   87.1042   10.6310 O.2     1  UNL1       -0.2701
      9 N          63.0785   85.8415   11.7569 N.am    1  UNL1       -0.2969
     10 H          63.9080   85.8552   12.2869 H       1  UNL1        0.1501
     11 C          62.5226   84.5371   11.2675 C.3     1  UNL1        0.1166
     12 C          62.5779   83.3219   12.1452 C.ar    1  UNL1       -0.0026
     13 C          62.7943   81.9675   11.5380 C.ar    1  UNL1       -0.0026
     14 C          62.8496   80.7523   12.4157 C.ar    1  UNL1       -0.0003
     15 C          62.6885   80.8916   13.9005 C.ar    1  UNL1       -0.0000
     16 C          62.4720   82.2460   14.5076 C.ar    1  UNL1       -0.0003
     17 C          62.4167   83.4612   13.6300 C.ar    1  UNL1       -0.0026
     18 O          64.5941   92.3428   13.3959 O.3     1  UNL1       -0.4528
     19 C          67.1919   92.3653   13.3680 C.ar    1  UNL1        0.1029
     20 C          68.4987   92.3949   14.1038 C.ar    1  UNL1        0.0134
     21 C          68.5145   92.4314   15.6032 C.ar    1  UNL1        0.0009
     22 C          67.2235   92.4384   16.3669 C.ar    1  UNL1        0.0032
     23 C          65.9167   92.4088   15.6311 C.ar    1  UNL1        0.0382
     24 C          65.9009   92.3723   14.1317 C.ar    1  UNL1        0.1548
     25 N          67.1604   92.2923   10.3690 N.1     1  UNL1       -0.1907
     26 C          67.1761   92.3288   11.8685 C.1     1  UNL1        0.1035
@<TRIPOS>BOND
     1    25    26    3
     2    26    19    1
     3    19    20   ar
     4    20    21   ar
     5    21    22   ar
     6    22    23   ar
     7    23    24   ar
     8    24    18    1
     9    18     1    1
    10     1     2   ar
    11     2     3   ar
    12     3     4   ar
    13     4     7    1
    14     7     8    2
    15     7     9   am
    16     9    11    1
    17    11    12    1
    18    12    13   ar
    19    13    14   ar
    20    14    15   ar
    21    15    16   ar
    22    16    17   ar
    23     4     5   ar
    24     5     6   ar
    25    24    19   ar
    26     6     1   ar
    27    17    12   ar
    28     9    10    1
@<TRIPOS>MOLECULE
*****
 26 28 0 0 0
SMALL
GASTEIGER

@<TRIPOS>ATOM
      1 C          62.5503   87.6279   12.0812 C.ar    1  UNL1        0.1453
      2 C          62.3459   88.8203   11.1944 C.ar    1  UNL1        0.0376
      3 C          63.0375   90.1143   11.5063 C.ar    1  UNL1        0.0076
      4 C          63.9335   90.2159   12.7049 C.ar    1  UNL1        0.0536
      5 C          64.1379   89.0236   13.5917 C.ar    1  UNL1        0.0076
      6 C          63.4464   87.7295   13.2798 C.ar    1  UNL1        0.0376
      7 C          64.6250   91.5099   13.0168 C.2     1  UNL1        0.2461
      8 O          64.6722   92.0137   14.4289 O.2     1  UNL1       -0.2701
      9 N          65.2694   92.3001   11.9166 N.am    1  UNL1       -0.2969
     10 H          65.2385   91.9695   10.9899 H       1  UNL1        0.1501
     11 C          65.9610   93.5941   12.2285 C.3     1  UNL1        0.1166
     12 C          66.4140   94.4900   11.1141 C.ar    1  UNL1       -0.0026
     13 C          66.0997   95.9561   11.1554 C.ar    1  UNL1       -0.0026
     14 C          66.5527   96.8520   10.0408 C.ar    1  UNL1       -0.0003
     15 C          67.3200   96.2818    8.8850 C.ar    1  UNL1       -0.0000
     16 C          67.6343   94.8157    8.8436 C.ar    1  UNL1       -0.0003
     17 C          67.1813   93.9198    9.9581 C.ar    1  UNL1       -0.0026
     18 O          61.8588   86.3339   11.7693 O.3     1  UNL1       -0.4528
     19 C          63.0379   84.1443   12.5211 C.ar    1  UNL1        0.1029
     20 C          63.8444   82.9236   12.1902 C.ar    1  UNL1        0.0134
     21 C          64.2783   82.6719   10.7766 C.ar    1  UNL1        0.0009
     22 C          63.9057   83.6408    9.6938 C.ar    1  UNL1        0.0032
     23 C          63.0992   84.8614   10.0247 C.ar    1  UNL1        0.0382
     24 C          62.6653   85.1132   11.4384 C.ar    1  UNL1        0.1548
     25 N          62.1702   84.6478   15.3484 N.1     1  UNL1       -0.1907
     26 C          62.6041   84.3960   13.9347 C.1     1  UNL1        0.1035
@<TRIPOS>BOND
     1    25    26    3
     2    26    19    1
     3    19    20   ar
     4    20    21   ar
     5    21    22   ar
     6    22    23   ar
     7    23    24   ar
     8    24    18    1
     9    18     1    1
    10     1     2   ar
    11     2     3   ar
    12     3     4   ar
    13     4     7    1
    14     7     8    2
    15     7     9   am
    16     9    11    1
    17    11    12    1
    18    12    13   ar
    19    13    14   ar
    20    14    15   ar
    21    15    16   ar
    22    16    17   ar
    23     4     5   ar
    24     5     6   ar
    25    24    19   ar
    26     6     1   ar
    27    17    12   ar
    28     9    10    1
@<TRIPOS>MOLECULE
*****
 26 28 0 0 0
SMALL
GASTEIGER

@<TRIPOS>ATOM
      1 C          64.6653   92.2242   12.3179 C.ar    1  UNL1        0.1453
      2 C          64.3680   92.1911   10.8480 C.ar    1  UNL1        0.0376
      3 C          63.4689   91.1289   10.2883 C.ar    1  UNL1        0.0076
      4 C          62.8672   90.0996   11.1985 C.ar    1  UNL1        0.0536
      5 C          63.1644   90.1326   12.6684 C.ar    1  UNL1        0.0076
      6 C          64.0635   91.1949   13.2281 C.ar    1  UNL1        0.0376
      7 C          61.9681   89.0373   10.6389 C.2     1  UNL1        0.2461
      8 O          61.1260   89.3269    9.4318 O.2     1  UNL1       -0.2701
      9 N          61.9111   87.6854   11.2863 N.am    1  UNL1       -0.2969
     10 H          62.4638   87.4953   12.0785 H       1  UNL1        0.1501
     11 C          61.0120   86.6231   10.7266 C.3     1  UNL1        0.1166
     12 C          61.2961   86.0352    9.3763 C.ar    1  UNL1       -0.0026
     13 C          60.2232   86.0100    8.3284 C.ar    1  UNL1       -0.0026
     14 C          60.5073   85.4220    6.9779 C.ar    1  UNL1       -0.0003
     15 C          61.8644   84.8592    6.6755 C.ar    1  UNL1       -0.0000
     16 C          62.9374   84.8843    7.7234 C.ar    1  UNL1       -0.0003
     17 C          62.6533   85.4723    9.0737 C.ar    1  UNL1       -0.0026
     18 O          65.5644   93.2864   12.8776 O.3     1  UNL1       -0.4528
     19 C          67.9350   92.3708   13.4179 C.ar    1  UNL1        0.1029
     20 C          68.9902   92.0086   14.4205 C.ar    1  UNL1        0.0134
     21 C          68.7301   92.1996   15.8854 C.ar    1  UNL1        0.0009
     22 C          67.4147   92.7528   16.3477 C.ar    1  UNL1        0.0032
     23 C          66.3595   93.1151   15.3451 C.ar    1  UNL1        0.0382
     24 C          66.6197   92.9241   13.8802 C.ar    1  UNL1        0.1548
     25 N          68.4552   91.9888   10.4882 N.1     1  UNL1       -0.1907
     26 C          68.1951   92.1798   11.9531 C.1     1  UNL1        0.1035
@<TRIPOS>BOND
     1    25    26    3
     2    26    19    1
     3    19    20   ar
     4    20    21   ar
     5    21    22   ar
     6    22    23   ar
     7    23    24   ar
     8    24    18    1
     9    18     1    1
    10     1     2   ar
    11     2     3   ar
    12     3     4   ar
    13     4     7    1
    14     7     8    2
    15     7     9   am
    16     9    11    1
    17    11    12    1
    18    12    13   ar
    19    13    14   ar
    20    14    15   ar
    21    15    16   ar
    22    16    17   ar
    23     4     5   ar
    24     5     6   ar
    25    24    19   ar
    26     6     1   ar
    27    17    12   ar
    28     9    10    1
@<TRIPOS>MOLECULE
*****
 26 28 0 0 0
SMALL
GASTEIGER

@<TRIPOS>ATOM
      1 C          65.2937   92.8867   12.0270 C.ar    1  UNL1        0.1453
      2 C          64.4972   92.4197   10.8447 C.ar    1  UNL1        0.0376
      3 C          63.7852   91.1004   10.8939 C.ar    1  UNL1        0.0076
      4 C          63.8695   90.2481   12.1253 C.ar    1  UNL1        0.0536
      5 C          64.6659   90.7150   13.3075 C.ar    1  UNL1        0.0076
      6 C          65.3780   92.0343   13.2584 C.ar    1  UNL1        0.0376
      7 C          63.1574   88.9288   12.1745 C.2     1  UNL1        0.2461
      8 O          63.4491   87.9599   13.2818 O.2     1  UNL1       -0.2701
      9 N          62.1535   88.5784   11.1164 N.am    1  UNL1       -0.2969
     10 H          61.9620   89.2144   10.3896 H       1  UNL1        0.1501
     11 C          61.4415   87.2592   11.1656 C.3     1  UNL1        0.1166
     12 C          62.1691   86.0001   10.7982 C.ar    1  UNL1       -0.0026
     13 C          62.5222   85.7285    9.3659 C.ar    1  UNL1       -0.0026
     14 C          63.2499   84.4693    8.9985 C.ar    1  UNL1       -0.0003
     15 C          63.6245   83.4817   10.0635 C.ar    1  UNL1       -0.0000
     16 C          63.2715   83.7532   11.4959 C.ar    1  UNL1       -0.0003
     17 C          62.5438   85.0124   11.8632 C.ar    1  UNL1       -0.0026
     18 O          66.0057   94.2059   11.9778 O.3     1  UNL1       -0.4528
     19 C          67.1567   94.4196    9.6584 C.ar    1  UNL1        0.1029
     20 C          67.3201   95.1354    8.3504 C.ar    1  UNL1        0.0134
     21 C          66.4961   96.3532    8.0537 C.ar    1  UNL1        0.0009
     22 C          65.5087   96.8552    9.0651 C.ar    1  UNL1        0.0032
     23 C          65.3453   96.1395   10.3731 C.ar    1  UNL1        0.0382
     24 C          66.1692   94.9217   10.6697 C.ar    1  UNL1        0.1548
     25 N          68.8046   91.9840   10.2517 N.1     1  UNL1       -0.1907
     26 C          67.9807   93.2018    9.9550 C.1     1  UNL1        0.1035
@<TRIPOS>BOND
     1    25    26    3
     2    26    19    1
     3    19    20   ar
     4    20    21   ar
     5    21    22   ar
     6    22    23   ar
     7    23    24   ar
     8    24    18    1
     9    18     1    1
    10     1     2   ar
    11     2     3   ar
    12     3     4   ar
    13     4     7    1
    14     7     8    2
    15     7     9   am
    16     9    11    1
    17    11    12    1
    18    12    13   ar
    19    13    14   ar
    20    14    15   ar
    21    15    16   ar
    22    16    17   ar
    23     4     5   ar
    24     5     6   ar
    25    24    19   ar
    26     6     1   ar
    27    17    12   ar
    28     9    10    1
@<TRIPOS>MOLECULE
*****
 26 28 0 0 0
SMALL
GASTEIGER

@<TRIPOS>ATOM
      1 C          64.0603   90.7702   12.9199 C.ar    1  UNL1        0.1453
      2 C          63.3267   90.6996   11.6134 C.ar    1  UNL1        0.0376
      3 C          62.7673   89.3919   11.1372 C.ar    1  UNL1        0.0076
      4 C          62.9414   88.1547   11.9674 C.ar    1  UNL1        0.0536
      5 C          63.6749   88.2254   13.2739 C.ar    1  UNL1        0.0076
      6 C          64.2344   89.5331   13.7502 C.ar    1  UNL1        0.0376
      7 C          62.3819   86.8470   11.4911 C.2     1  UNL1        0.2461
      8 O          61.0315   86.8017   10.8399 O.2     1  UNL1       -0.2701
      9 N          63.1730   85.5846   11.6662 N.am    1  UNL1       -0.2969
     10 H          64.0593   85.6143   12.0936 H       1  UNL1        0.1501
     11 C          62.6135   84.2769   11.1899 C.3     1  UNL1        0.1166
     12 C          62.5700   83.0979   12.1163 C.ar    1  UNL1       -0.0026
     13 C          62.2682   83.2985   13.5718 C.ar    1  UNL1       -0.0026
     14 C          62.2247   82.1195   14.4982 C.ar    1  UNL1       -0.0003
     15 C          62.4830   80.7399   13.9690 C.ar    1  UNL1       -0.0000
     16 C          62.7848   80.5394   12.5134 C.ar    1  UNL1       -0.0003
     17 C          62.8284   81.7183   11.5871 C.ar    1  UNL1       -0.0026
     18 O          64.6198   92.0779   13.3962 O.3     1  UNL1       -0.4528
     19 C          66.3529   92.3505   15.3124 C.ar    1  UNL1        0.1029
     20 C          67.7780   92.4334   15.7729 C.ar    1  UNL1        0.0134
     21 C          68.8952   92.3266   14.7777 C.ar    1  UNL1        0.0009
     22 C          68.5873   92.1369   13.3220 C.ar    1  UNL1        0.0032
     23 C          67.1622   92.0540   12.8615 C.ar    1  UNL1        0.0382
     24 C          66.0450   92.1608   13.8567 C.ar    1  UNL1        0.1548
     25 N          64.1185   92.5641   17.3029 N.1     1  UNL1       -0.1907
     26 C          65.2357   92.4573   16.3077 C.1     1  UNL1        0.1035
@<TRIPOS>BOND
     1    25    26    3
     2    26    19    1
     3    19    20   ar
     4    20    21   ar
     5    21    22   ar
     6    22    23   ar
     7    23    24   ar
     8    24    18    1
     9    18     1    1
    10     1     2   ar
    11     2     3   ar
    12     3     4   ar
    13     4     7    1
    14     7     8    2
    15     7     9   am
    16     9    11    1
    17    11    12    1
    18    12    13   ar
    19    13    14   ar
    20    14    15   ar
    21    15    16   ar
    22    16    17   ar
    23     4     5   ar
    24     5     6   ar
    25    24    19   ar
    26     6     1   ar
    27    17    12   ar
    28     9    10    1
@<TRIPOS>MOLECULE
*****
 26 28 0 0 0
SMALL
GASTEIGER

@<TRIPOS>ATOM
      1 C          62.6142   87.4815   11.9447 C.ar    1  UNL1        0.1453
      2 C          63.4879   87.5887   13.1593 C.ar    1  UNL1        0.0376
      3 C          64.1287   88.8991   13.5089 C.ar    1  UNL1        0.0076
      4 C          63.8958   90.1023   12.6440 C.ar    1  UNL1        0.0536
      5 C          63.0221   89.9951   11.4295 C.ar    1  UNL1        0.0076
      6 C          62.3813   88.6847   11.0798 C.ar    1  UNL1        0.0376
      7 C          64.5366   91.4127   12.9936 C.2     1  UNL1        0.2461
      8 O          64.5035   91.9099   14.4084 O.2     1  UNL1       -0.2701
      9 N          65.2105   92.2259   11.9284 N.am    1  UNL1       -0.2969
     10 H          65.2322   91.8995   10.9998 H       1  UNL1        0.1501
     11 C          65.8513   93.5362   12.2780 C.3     1  UNL1        0.1166
     12 C          66.3567   94.4376   11.1909 C.ar    1  UNL1       -0.0026
     13 C          66.2047   95.9245   11.3181 C.ar    1  UNL1       -0.0026
     14 C          66.7101   96.8259   10.2309 C.ar    1  UNL1       -0.0003
     15 C          67.3675   96.2404    9.0164 C.ar    1  UNL1       -0.0000
     16 C          67.5195   94.7536    8.8891 C.ar    1  UNL1       -0.0003
     17 C          67.0141   93.8522    9.9763 C.ar    1  UNL1       -0.0026
     18 O          61.9734   86.1711   11.5951 O.3     1  UNL1       -0.4528
     19 C          63.3095   84.1741   10.6067 C.ar    1  UNL1        0.1029
     20 C          64.0660   82.8937   10.8018 C.ar    1  UNL1        0.0134
     21 C          64.2428   82.3296   12.1804 C.ar    1  UNL1        0.0009
     22 C          63.6632   83.0461   13.3639 C.ar    1  UNL1        0.0032
     23 C          62.9067   84.3265   13.1688 C.ar    1  UNL1        0.0382
     24 C          62.7299   84.8906   11.7902 C.ar    1  UNL1        0.1548
     25 N          62.9558   85.3022    7.8495 N.1     1  UNL1       -0.1907
     26 C          63.1327   84.7382    9.2281 C.1     1  UNL1        0.1035
@<TRIPOS>BOND
     1    25    26    3
     2    26    19    1
     3    19    20   ar
     4    20    21   ar
     5    21    22   ar
     6    22    23   ar
     7    23    24   ar
     8    24    18    1
     9    18     1    1
    10     1     2   ar
    11     2     3   ar
    12     3     4   ar
    13     4     7    1
    14     7     8    2
    15     7     9   am
    16     9    11    1
    17    11    12    1
    18    12    13   ar
    19    13    14   ar
    20    14    15   ar
    21    15    16   ar
    22    16    17   ar
    23     4     5   ar
    24     5     6   ar
    25    24    19   ar
    26     6     1   ar
    27    17    12   ar
    28     9    10    1
