@<TRIPOS>MOLECULE
*****
 37 40 0 0 0
SMALL
GASTEIGER

@<TRIPOS>ATOM
      1 C          62.5641   84.7642   12.0818 C.ar    1  UNL1        0.0887
      2 C          61.9707   85.9211   11.3339 C.ar    1  UNL1        0.0375
      3 C          62.1478   86.0239    9.8479 C.ar    1  UNL1        0.1088
      4 C          62.9184   84.9696    9.1098 C.ar    1  UNL1        0.1552
      5 C          63.5119   83.8126    9.8577 C.ar    1  UNL1        0.0544
      6 C          63.3347   83.7100   11.3437 C.ar    1  UNL1        0.0703
      7 O          63.0955   85.0723    7.6238 O.3     1  UNL1       -0.4701
      8 C          61.9678   84.7019    6.7067 C.3     1  UNL1        0.2525
      9 N          63.9282   82.5530   12.0915 N.pl3   1  UNL1       -0.2820
     10 C          64.9568   82.4597   12.4509 C.3     1  UNL1        0.1174
     11 C          63.0824   81.3583   12.4189 C.2     1  UNL1        0.0815
     12 C          62.0929   81.4256   13.5442 C.2     1  UNL1        0.0778
     13 N          61.2471   80.2309   13.8716 N.pl3   1  UNL1       -0.3021
     14 C          61.8558   78.8600   13.8779 C.3     1  UNL1        0.1123
     15 C          59.7925   80.4070   14.1928 C.3     1  UNL1        0.1123
     16 N          62.3870   84.6615   13.5677 N.am    1  UNL1       -0.1741
     17 C          63.5623   84.8595   14.4785 C.2     1  UNL1        0.2692
     18 O          63.8066   84.2802   15.3731 O.2     1  UNL1       -0.2680
     19 C          64.3583   87.3127   14.7923 C.2     1  UNL1        0.0049
     20 C          64.5536   85.9496   14.1975 C.2     1  UNL1        0.0598
     21 N          61.5543   87.1808    9.1001 N.pl3   1  UNL1       -0.1745
     22 C          61.3969   88.5100    9.7770 C.ar    1  UNL1        0.2409
     23 N          60.0271   89.0747   10.0115 N.ar    1  UNL1       -0.2106
     24 C          59.8697   90.4040   10.6884 C.ar    1  UNL1        0.1034
     25 C          61.0819   91.1685   11.1309 C.ar    1  UNL1        0.0400
     26 C          62.4518   90.6038   10.8965 C.ar    1  UNL1        0.0873
     27 N          62.6091   89.2746   10.2195 N.ar    1  UNL1       -0.2121
     28 C          63.6640   91.3684   11.3390 C.ar    1  UNL1        0.0364
     29 C          64.5368   92.2199   10.4654 C.ar    1  UNL1        0.0774
     30 N          65.6285   92.7934   11.3193 N.ar    1  UNL1       -0.3240
     31 C          66.7257   93.7041   10.8537 C.3     1  UNL1        0.1305
     32 C          65.4304   92.2965   12.7207 C.ar    1  UNL1        0.0600
     33 C          66.1987   92.5321   13.9872 C.ar    1  UNL1        0.0172
     34 C          65.7529   91.8871   15.2659 C.ar    1  UNL1        0.0015
     35 C          64.5387   91.0063   15.2780 C.ar    1  UNL1        0.0001
     36 C          63.7704   90.7707   14.0115 C.ar    1  UNL1        0.0015
     37 C          64.2163   91.4157   12.7328 C.ar    1  UNL1        0.0187
@<TRIPOS>BOND
     1    19    20    2
     2    20    17    1
     3    17    18    2
     4    17    16   am
     5    16     1    1
     6     1     2   ar
     7     2     3   ar
     8     3    21    1
     9    21    22    1
    10    22    23   ar
    11    23    24   ar
    12    24    25   ar
    13    25    26   ar
    14    26    28    1
    15    28    29   ar
    16    29    30   ar
    17    30    31    1
    18    30    32   ar
    19    32    33   ar
    20    33    34   ar
    21    34    35   ar
    22    35    36   ar
    23    36    37   ar
    24    26    27   ar
    25     3     4   ar
    26     4     7    1
    27     7     8    1
    28     4     5   ar
    29     5     6   ar
    30     6     9    1
    31     9    10    1
    32     9    11    1
    33    11    12    2
    34    12    13    1
    35    13    14    1
    36    13    15    1
    37     6     1   ar
    38    27    22   ar
    39    37    28   ar
    40    37    32   ar
@<TRIPOS>MOLECULE
*****
 37 40 0 0 0
SMALL
GASTEIGER

@<TRIPOS>ATOM
      1 C          63.3508   90.2621   12.3658 C.ar    1  UNL1        0.0887
      2 C          63.2128   89.6698   13.7369 C.ar    1  UNL1        0.0375
      3 C          63.9881   90.2461   14.8845 C.ar    1  UNL1        0.1088
      4 C          64.9015   91.4147   14.6607 C.ar    1  UNL1        0.1552
      5 C          65.0395   92.0070   13.2895 C.ar    1  UNL1        0.0544
      6 C          64.2641   91.4307   12.1420 C.ar    1  UNL1        0.0703
      7 O          65.6769   91.9910   15.8082 O.3     1  UNL1       -0.4701
      8 C          66.9239   92.7831   15.5482 C.3     1  UNL1        0.2525
      9 N          64.4021   92.0231   10.7709 N.pl3   1  UNL1       -0.2820
     10 C          63.6885   91.9461    9.9459 C.3     1  UNL1        0.1174
     11 C          65.6226   92.8203   10.4177 C.2     1  UNL1        0.0815
     12 C          65.5656   94.3192   10.4191 C.2     1  UNL1        0.0778
     13 N          66.7860   95.1165   10.0658 N.pl3   1  UNL1       -0.3021
     14 C          66.8425   96.5816   10.3825 C.3     1  UNL1        0.1123
     15 C          67.9502   94.4487    9.3958 C.3     1  UNL1        0.1123
     16 N          62.5754   89.6857   11.2183 N.am    1  UNL1       -0.1741
     17 C          61.0783   89.6193   11.2830 C.2     1  UNL1        0.2692
     18 O          60.4685   89.3432   12.1477 O.2     1  UNL1       -0.2680
     19 C          60.2237   89.0089    8.9066 C.2     1  UNL1        0.0049
     20 C          60.2596   89.9534   10.0713 C.2     1  UNL1        0.0598
     21 N          63.8501   89.6537   16.2556 N.pl3   1  UNL1       -0.1745
     22 C          63.4779   88.2094   16.4147 C.ar    1  UNL1        0.2409
     23 N          62.8929   87.7237   17.7077 N.ar    1  UNL1       -0.2106
     24 C          62.5207   86.2793   17.8668 C.ar    1  UNL1        0.1034
     25 C          62.7335   85.3207   16.7328 C.ar    1  UNL1        0.0400
     26 C          63.3185   85.8064   15.4398 C.ar    1  UNL1        0.0873
     27 N          63.6907   87.2507   15.2808 N.ar    1  UNL1       -0.2121
     28 C          63.5313   84.8478   14.3059 C.ar    1  UNL1        0.0364
     29 C          64.1310   83.4769   14.4111 C.ar    1  UNL1        0.0774
     30 N          64.1521   82.8736   13.0379 N.ar    1  UNL1       -0.3240
     31 C          64.6690   81.5114   12.6812 C.3     1  UNL1        0.1305
     32 C          63.5655   83.8717   12.0840 C.ar    1  UNL1        0.0600
     33 C          63.3311   83.8271   10.6032 C.ar    1  UNL1        0.0172
     34 C          62.7131   85.0026    9.9059 C.ar    1  UNL1        0.0015
     35 C          62.3295   86.2228   10.6896 C.ar    1  UNL1        0.0001
     36 C          62.5639   86.2673   12.1705 C.ar    1  UNL1        0.0015
     37 C          63.1819   85.0918   12.8677 C.ar    1  UNL1        0.0187
@<TRIPOS>BOND
     1    19    20    2
     2    20    17    1
     3    17    18    2
     4    17    16   am
     5    16     1    1
     6     1     2   ar
     7     2     3   ar
     8     3    21    1
     9    21    22    1
    10    22    23   ar
    11    23    24   ar
    12    24    25   ar
    13    25    26   ar
    14    26    28    1
    15    28    29   ar
    16    29    30   ar
    17    30    31    1
    18    30    32   ar
    19    32    33   ar
    20    33    34   ar
    21    34    35   ar
    22    35    36   ar
    23    36    37   ar
    24    26    27   ar
    25     3     4   ar
    26     4     7    1
    27     7     8    1
    28     4     5   ar
    29     5     6   ar
    30     6     9    1
    31     9    10    1
    32     9    11    1
    33    11    12    2
    34    12    13    1
    35    13    14    1
    36    13    15    1
    37     6     1   ar
    38    27    22   ar
    39    37    28   ar
    40    37    32   ar
@<TRIPOS>MOLECULE
*****
 37 40 0 0 0
SMALL
GASTEIGER

@<TRIPOS>ATOM
      1 C          63.4347   86.3457   13.0528 C.ar    1  UNL1        0.0887
      2 C          63.3506   87.7731   13.5059 C.ar    1  UNL1        0.0375
      3 C          62.7240   88.8065   12.6173 C.ar    1  UNL1        0.1088
      4 C          62.1815   88.4124   11.2756 C.ar    1  UNL1        0.1552
      5 C          62.2655   86.9849   10.8224 C.ar    1  UNL1        0.0544
      6 C          62.8921   85.9516   11.7110 C.ar    1  UNL1        0.0703
      7 O          61.5549   89.4457   10.3870 O.3     1  UNL1       -0.4701
      8 C          60.1093   89.8065   10.5599 C.3     1  UNL1        0.2525
      9 N          62.9762   84.5242   11.2578 N.pl3   1  UNL1       -0.2820
     10 C          63.4906   84.1446   10.3706 C.3     1  UNL1        0.1174
     11 C          62.3079   83.4435   12.0551 C.2     1  UNL1        0.0815
     12 C          63.0158   82.1434   12.2972 C.2     1  UNL1        0.0778
     13 N          62.3476   81.0628   13.0945 N.pl3   1  UNL1       -0.3021
     14 C          61.4354   81.4230   14.2294 C.3     1  UNL1        0.1123
     15 C          62.5915   79.6218   12.7568 C.3     1  UNL1        0.1123
     16 N          64.0613   85.3124   13.9414 N.am    1  UNL1       -0.1741
     17 C          63.4597   85.0121   15.2822 C.2     1  UNL1        0.2692
     18 O          62.7587   84.2085   15.5240 O.2     1  UNL1       -0.2680
     19 C          62.7349   86.3020   17.4179 C.2     1  UNL1        0.0049
     20 C          63.8092   85.8614   16.4683 C.2     1  UNL1        0.0598
     21 N          62.6400   90.2339   13.0705 N.pl3   1  UNL1       -0.1745
     22 C          63.8944   91.0291   13.2812 C.ar    1  UNL1        0.2409
     23 N          64.3809   91.3078   14.6724 N.ar    1  UNL1       -0.2106
     24 C          65.6352   92.1029   14.8830 C.ar    1  UNL1        0.1034
     25 C          66.4030   92.6194   13.7024 C.ar    1  UNL1        0.0400
     26 C          65.9164   92.3406   12.3111 C.ar    1  UNL1        0.0873
     27 N          64.6621   91.5455   12.1006 N.ar    1  UNL1       -0.2121
     28 C          66.6842   92.8570   11.1305 C.ar    1  UNL1        0.0364
     29 C          67.6124   92.0580   10.2644 C.ar    1  UNL1        0.0774
     30 N          68.1604   92.9703    9.2073 N.ar    1  UNL1       -0.3240
     31 C          69.1280   92.5872    8.1271 C.3     1  UNL1        0.1305
     32 C          67.5709   94.3332    9.4201 C.ar    1  UNL1        0.0600
     33 C          67.7470   95.6288    8.6851 C.ar    1  UNL1        0.0172
     34 C          67.0108   96.8544    9.1387 C.ar    1  UNL1        0.0015
     35 C          66.0984   96.7844   10.3273 C.ar    1  UNL1        0.0001
     36 C          65.9223   95.4887   11.0623 C.ar    1  UNL1        0.0015
     37 C          66.6585   94.2631   10.6087 C.ar    1  UNL1        0.0187
@<TRIPOS>BOND
     1    19    20    2
     2    20    17    1
     3    17    18    2
     4    17    16   am
     5    16     1    1
     6     1     2   ar
     7     2     3   ar
     8     3    21    1
     9    21    22    1
    10    22    23   ar
    11    23    24   ar
    12    24    25   ar
    13    25    26   ar
    14    26    28    1
    15    28    29   ar
    16    29    30   ar
    17    30    31    1
    18    30    32   ar
    19    32    33   ar
    20    33    34   ar
    21    34    35   ar
    22    35    36   ar
    23    36    37   ar
    24    26    27   ar
    25     3     4   ar
    26     4     7    1
    27     7     8    1
    28     4     5   ar
    29     5     6   ar
    30     6     9    1
    31     9    10    1
    32     9    11    1
    33    11    12    2
    34    12    13    1
    35    13    14    1
    36    13    15    1
    37     6     1   ar
    38    27    22   ar
    39    37    28   ar
    40    37    32   ar
@<TRIPOS>MOLECULE
*****
 37 40 0 0 0
SMALL
GASTEIGER

@<TRIPOS>ATOM
      1 C          62.3886   88.5472   10.9921 C.ar    1  UNL1        0.0887
      2 C          62.5690   89.6686   11.9718 C.ar    1  UNL1        0.0375
      3 C          63.0941   89.3851   13.3480 C.ar    1  UNL1        0.1088
      4 C          63.4388   87.9802   13.7445 C.ar    1  UNL1        0.1552
      5 C          63.2585   86.8587   12.7647 C.ar    1  UNL1        0.0544
      6 C          62.7334   87.1422   11.3885 C.ar    1  UNL1        0.0703
      7 O          63.9639   87.6966   15.1207 O.3     1  UNL1       -0.4701
      8 C          64.1949   86.2806   15.5582 C.3     1  UNL1        0.2525
      9 N          62.5530   86.0208   10.4089 N.pl3   1  UNL1       -0.2820
     10 C          62.4627   86.1043    9.3222 C.3     1  UNL1        0.1174
     11 C          62.4795   84.6039   10.8959 C.2     1  UNL1        0.0815
     12 C          63.7231   83.7678   10.9610 C.2     1  UNL1        0.0778
     13 N          63.6495   82.3510   11.4480 N.pl3   1  UNL1       -0.3021
     14 C          64.0099   82.0261   12.8674 C.3     1  UNL1        0.1123
     15 C          63.2157   81.2590   10.5157 C.3     1  UNL1        0.1123
     16 N          61.8635   88.8308    9.6159 N.am    1  UNL1       -0.1741
     17 C          60.4118   89.1526    9.4187 C.2     1  UNL1        0.2692
     18 O          59.8090   89.8566    9.9990 O.2     1  UNL1       -0.2680
     19 C          59.3979   89.1834    7.0268 C.2     1  UNL1        0.0049
     20 C          59.6350   88.4763    8.3282 C.2     1  UNL1        0.0598
     21 N          63.2744   90.5066   14.3277 N.pl3   1  UNL1       -0.1745
     22 C          64.4918   91.3797   14.2525 C.ar    1  UNL1        0.2409
     23 N          65.1272   91.8905   15.5116 N.ar    1  UNL1       -0.2106
     24 C          66.3446   92.7636   15.4365 C.ar    1  UNL1        0.1034
     25 C          66.9266   93.1258   14.1023 C.ar    1  UNL1        0.0400
     26 C          66.2912   92.6149   12.8432 C.ar    1  UNL1        0.0873
     27 N          65.0738   91.7419   12.9184 N.ar    1  UNL1       -0.2121
     28 C          66.8732   92.9771   11.5090 C.ar    1  UNL1        0.0364
     29 C          67.6955   92.0793   10.6327 C.ar    1  UNL1        0.0774
     30 N          68.0656   92.8481    9.3990 N.ar    1  UNL1       -0.3240
     31 C          68.8853   92.3342    8.2527 C.3     1  UNL1        0.1305
     32 C          67.4721   94.2210    9.5128 C.ar    1  UNL1        0.0600
     33 C          67.5075   95.4088    8.5975 C.ar    1  UNL1        0.0172
     34 C          66.8059   96.6763    8.9862 C.ar    1  UNL1        0.0015
     35 C          66.0690   96.7560   10.2903 C.ar    1  UNL1        0.0001
     36 C          66.0336   95.5682   11.2056 C.ar    1  UNL1        0.0015
     37 C          66.7351   94.3007   10.8169 C.ar    1  UNL1        0.0187
@<TRIPOS>BOND
     1    19    20    2
     2    20    17    1
     3    17    18    2
     4    17    16   am
     5    16     1    1
     6     1     2   ar
     7     2     3   ar
     8     3    21    1
     9    21    22    1
    10    22    23   ar
    11    23    24   ar
    12    24    25   ar
    13    25    26   ar
    14    26    28    1
    15    28    29   ar
    16    29    30   ar
    17    30    31    1
    18    30    32   ar
    19    32    33   ar
    20    33    34   ar
    21    34    35   ar
    22    35    36   ar
    23    36    37   ar
    24    26    27   ar
    25     3     4   ar
    26     4     7    1
    27     7     8    1
    28     4     5   ar
    29     5     6   ar
    30     6     9    1
    31     9    10    1
    32     9    11    1
    33    11    12    2
    34    12    13    1
    35    13    14    1
    36    13    15    1
    37     6     1   ar
    38    27    22   ar
    39    37    28   ar
    40    37    32   ar
@<TRIPOS>MOLECULE
*****
 37 40 0 0 0
SMALL
GASTEIGER

@<TRIPOS>ATOM
      1 C          63.1966   90.4078   14.0070 C.ar    1  UNL1        0.0887
      2 C          62.5412   90.1106   12.6909 C.ar    1  UNL1        0.0375
      3 C          63.0588   90.7465   11.4347 C.ar    1  UNL1        0.1088
      4 C          64.2318   91.6794   11.4947 C.ar    1  UNL1        0.1552
      5 C          64.8872   91.9766   12.8109 C.ar    1  UNL1        0.0544
      6 C          64.3696   91.3407   14.0670 C.ar    1  UNL1        0.0703
      7 O          64.7494   92.3153   10.2386 O.3     1  UNL1       -0.4701
      8 C          65.8529   93.3287   10.3107 C.3     1  UNL1        0.2525
      9 N          65.0250   91.6379   15.3831 N.pl3   1  UNL1       -0.2820
     10 C          64.5321   91.7556   16.3521 C.3     1  UNL1        0.1174
     11 C          66.5137   91.8055   15.4587 C.2     1  UNL1        0.0815
     12 C          67.1193   93.1754   15.3774 C.2     1  UNL1        0.0778
     13 N          68.6080   93.3429   15.4530 N.pl3   1  UNL1       -0.3021
     14 C          69.5090   92.3676   14.7552 C.3     1  UNL1        0.1123
     15 C          69.1958   94.4858   16.2265 C.3     1  UNL1        0.1123
     16 N          62.6790   89.7719   15.2631 N.am    1  UNL1       -0.1741
     17 C          63.3293   88.5308   15.7983 C.2     1  UNL1        0.2692
     18 O          63.9982   87.8537   15.2600 O.2     1  UNL1       -0.2680
     19 C          62.6704   86.6970   17.5170 C.2     1  UNL1        0.0049
     20 C          63.0839   88.1072   17.2162 C.2     1  UNL1        0.0598
     21 N          62.4034   90.4493   10.1186 N.pl3   1  UNL1       -0.1745
     22 C          61.7776   89.1074    9.8784 C.ar    1  UNL1        0.2409
     23 N          60.4310   89.0141    9.2241 N.ar    1  UNL1       -0.2106
     24 C          59.8053   87.6722    8.9839 C.ar    1  UNL1        0.1034
     25 C          60.5260   86.4236    9.3980 C.ar    1  UNL1        0.0400
     26 C          61.8726   86.5169   10.0524 C.ar    1  UNL1        0.0873
     27 N          62.4983   87.8588   10.2925 N.ar    1  UNL1       -0.2121
     28 C          62.5934   85.2683   10.4664 C.ar    1  UNL1        0.0364
     29 C          63.2259   84.2684    9.5444 C.ar    1  UNL1        0.0774
     30 N          63.8316   83.1825   10.3834 N.ar    1  UNL1       -0.3240
     31 C          64.5665   81.9791    9.8717 C.3     1  UNL1        0.1305
     32 C          63.5734   83.5113   11.8240 C.ar    1  UNL1        0.0600
     33 C          63.9363   82.8033   13.0957 C.ar    1  UNL1        0.0172
     34 C          63.5338   83.3845   14.4186 C.ar    1  UNL1        0.0015
     35 C          62.7686   84.6736   14.4699 C.ar    1  UNL1        0.0001
     36 C          62.4057   85.3815   13.1983 C.ar    1  UNL1        0.0015
     37 C          62.8081   84.8003   11.8753 C.ar    1  UNL1        0.0187
@<TRIPOS>BOND
     1    19    20    2
     2    20    17    1
     3    17    18    2
     4    17    16   am
     5    16     1    1
     6     1     2   ar
     7     2     3   ar
     8     3    21    1
     9    21    22    1
    10    22    23   ar
    11    23    24   ar
    12    24    25   ar
    13    25    26   ar
    14    26    28    1
    15    28    29   ar
    16    29    30   ar
    17    30    31    1
    18    30    32   ar
    19    32    33   ar
    20    33    34   ar
    21    34    35   ar
    22    35    36   ar
    23    36    37   ar
    24    26    27   ar
    25     3     4   ar
    26     4     7    1
    27     7     8    1
    28     4     5   ar
    29     5     6   ar
    30     6     9    1
    31     9    10    1
    32     9    11    1
    33    11    12    2
    34    12    13    1
    35    13    14    1
    36    13    15    1
    37     6     1   ar
    38    27    22   ar
    39    37    28   ar
    40    37    32   ar
@<TRIPOS>MOLECULE
*****
 37 40 0 0 0
SMALL
GASTEIGER

@<TRIPOS>ATOM
      1 C          63.0972   84.0193   12.8997 C.ar    1  UNL1        0.0887
      2 C          63.5059   85.4615   12.9529 C.ar    1  UNL1        0.0375
      3 C          63.7483   86.1241   14.2767 C.ar    1  UNL1        0.1088
      4 C          63.5819   85.3444   15.5472 C.ar    1  UNL1        0.1552
      5 C          63.1732   83.9021   15.4940 C.ar    1  UNL1        0.0544
      6 C          62.9309   83.2395   14.1703 C.ar    1  UNL1        0.0703
      7 O          63.8243   86.0069   16.8710 O.3     1  UNL1       -0.4701
      8 C          62.6832   86.6336   17.6161 C.3     1  UNL1        0.2525
      9 N          62.5222   81.7973   14.1172 N.pl3   1  UNL1       -0.2820
     10 C          63.1794   80.9308   14.0023 C.3     1  UNL1        0.1174
     11 C          61.0736   81.4236   14.2268 C.2     1  UNL1        0.0815
     12 C          60.6699   79.9790   14.2298 C.2     1  UNL1        0.0778
     13 N          59.2213   79.6054   14.3395 N.pl3   1  UNL1       -0.3021
     14 C          58.1642   80.6656   14.2482 C.3     1  UNL1        0.1123
     15 C          58.8298   78.1714   14.5405 C.3     1  UNL1        0.1123
     16 N          62.8548   83.3568   11.5760 N.am    1  UNL1       -0.1741
     17 C          63.9865   82.6874   10.8540 C.2     1  UNL1        0.2692
     18 O          65.0241   83.0278   10.7974 O.2     1  UNL1       -0.2680
     19 C          62.8422   80.3612   10.6819 C.2     1  UNL1        0.0049
     20 C          63.7475   81.4094   10.1060 C.2     1  UNL1        0.0598
     21 N          64.1569   87.5664   14.3298 N.pl3   1  UNL1       -0.1745
     22 C          63.7066   88.5136   13.2574 C.ar    1  UNL1        0.2409
     23 N          64.0782   89.9648   13.3341 N.ar    1  UNL1       -0.2106
     24 C          63.6279   90.9119   12.2617 C.ar    1  UNL1        0.1034
     25 C          62.8059   90.4079   11.1126 C.ar    1  UNL1        0.0400
     26 C          62.4342   88.9566   11.0360 C.ar    1  UNL1        0.0873
     27 N          62.8846   88.0096   12.1084 N.ar    1  UNL1       -0.2121
     28 C          61.6122   88.4526    9.8870 C.ar    1  UNL1        0.0364
     29 C          60.4016   89.1230    9.3080 C.ar    1  UNL1        0.0774
     30 N          59.8977   88.2744    8.1784 N.ar    1  UNL1       -0.3240
     31 C          58.7042   88.5689    7.3188 C.3     1  UNL1        0.1305
     32 C          60.7968   87.0796    8.0592 C.ar    1  UNL1        0.0600
     33 C          60.7876   85.9057    7.1256 C.ar    1  UNL1        0.0172
     34 C          61.8379   84.8419    7.2480 C.ar    1  UNL1        0.0015
     35 C          62.8976   84.9520    8.3040 C.ar    1  UNL1        0.0001
     36 C          62.9068   86.1260    9.2376 C.ar    1  UNL1        0.0015
     37 C          61.8564   87.1898    9.1152 C.ar    1  UNL1        0.0187
@<TRIPOS>BOND
     1    19    20    2
     2    20    17    1
     3    17    18    2
     4    17    16   am
     5    16     1    1
     6     1     2   ar
     7     2     3   ar
     8     3    21    1
     9    21    22    1
    10    22    23   ar
    11    23    24   ar
    12    24    25   ar
    13    25    26   ar
    14    26    28    1
    15    28    29   ar
    16    29    30   ar
    17    30    31    1
    18    30    32   ar
    19    32    33   ar
    20    33    34   ar
    21    34    35   ar
    22    35    36   ar
    23    36    37   ar
    24    26    27   ar
    25     3     4   ar
    26     4     7    1
    27     7     8    1
    28     4     5   ar
    29     5     6   ar
    30     6     9    1
    31     9    10    1
    32     9    11    1
    33    11    12    2
    34    12    13    1
    35    13    14    1
    36    13    15    1
    37     6     1   ar
    38    27    22   ar
    39    37    28   ar
    40    37    32   ar
@<TRIPOS>MOLECULE
*****
 37 40 0 0 0
SMALL
GASTEIGER

@<TRIPOS>ATOM
      1 C          63.7319   85.6717   12.9630 C.ar    1  UNL1        0.0887
      2 C          63.5314   87.1200   13.2978 C.ar    1  UNL1        0.0375
      3 C          62.8099   88.0189   12.3379 C.ar    1  UNL1        0.1088
      4 C          62.2890   87.4694   11.0430 C.ar    1  UNL1        0.1552
      5 C          62.4896   86.0210   10.7081 C.ar    1  UNL1        0.0544
      6 C          63.2111   85.1222   11.6681 C.ar    1  UNL1        0.0703
      7 O          61.5675   88.3683   10.0830 O.3     1  UNL1       -0.4701
      8 C          60.6392   87.7828    9.0606 C.3     1  UNL1        0.2525
      9 N          63.4116   83.6739   11.3331 N.pl3   1  UNL1       -0.2820
     10 C          64.1682   83.2514   10.6661 C.3     1  UNL1        0.1174
     11 C          62.5175   82.6331   11.9391 C.2     1  UNL1        0.0815
     12 C          63.1059   81.5270   12.7638 C.2     1  UNL1        0.0778
     13 N          62.2117   80.4862   13.3698 N.pl3   1  UNL1       -0.3021
     14 C          62.4798   79.0312   13.1229 C.3     1  UNL1        0.1123
     15 C          61.0494   80.9004   14.2227 C.3     1  UNL1        0.1123
     16 N          64.4534   84.7728   13.9230 N.am    1  UNL1       -0.1741
     17 C          63.7105   84.1438   15.0641 C.2     1  UNL1        0.2692
     18 O          63.7350   83.0932   15.3661 O.2     1  UNL1       -0.2680
     19 C          63.4095   86.0276   16.8279 C.2     1  UNL1        0.0049
     20 C          62.8174   84.9818   15.9304 C.2     1  UNL1        0.0598
     21 N          62.6093   89.4672   12.6729 N.pl3   1  UNL1       -0.1745
     22 C          63.7666   90.2941   13.1491 C.ar    1  UNL1        0.2409
     23 N          64.3363   90.0688   14.5183 N.ar    1  UNL1       -0.2106
     24 C          65.4936   90.8957   14.9945 C.ar    1  UNL1        0.1034
     25 C          66.0812   91.9480   14.1016 C.ar    1  UNL1        0.0400
     26 C          65.5116   92.1733   12.7323 C.ar    1  UNL1        0.0873
     27 N          64.3543   91.3464   12.2561 N.ar    1  UNL1       -0.2121
     28 C          66.0993   93.2256   11.8393 C.ar    1  UNL1        0.0364
     29 C          65.8840   94.7051   11.9601 C.ar    1  UNL1        0.0774
     30 N          66.6571   95.3769   10.8642 N.ar    1  UNL1       -0.3240
     31 C          66.7252   96.8538   10.6108 C.3     1  UNL1        0.1305
     32 C          67.3502   94.3126   10.0661 C.ar    1  UNL1        0.0600
     33 C          68.2506   94.3824    8.8686 C.ar    1  UNL1        0.0172
     34 C          68.8064   93.1225    8.2737 C.ar    1  UNL1        0.0015
     35 C          68.4616   91.7929    8.8763 C.ar    1  UNL1        0.0001
     36 C          67.5611   91.7231   10.0739 C.ar    1  UNL1        0.0015
     37 C          67.0054   92.9829   10.6688 C.ar    1  UNL1        0.0187
@<TRIPOS>BOND
     1    19    20    2
     2    20    17    1
     3    17    18    2
     4    17    16   am
     5    16     1    1
     6     1     2   ar
     7     2     3   ar
     8     3    21    1
     9    21    22    1
    10    22    23   ar
    11    23    24   ar
    12    24    25   ar
    13    25    26   ar
    14    26    28    1
    15    28    29   ar
    16    29    30   ar
    17    30    31    1
    18    30    32   ar
    19    32    33   ar
    20    33    34   ar
    21    34    35   ar
    22    35    36   ar
    23    36    37   ar
    24    26    27   ar
    25     3     4   ar
    26     4     7    1
    27     7     8    1
    28     4     5   ar
    29     5     6   ar
    30     6     9    1
    31     9    10    1
    32     9    11    1
    33    11    12    2
    34    12    13    1
    35    13    14    1
    36    13    15    1
    37     6     1   ar
    38    27    22   ar
    39    37    28   ar
    40    37    32   ar
@<TRIPOS>MOLECULE
*****
 37 40 0 0 0
SMALL
GASTEIGER

@<TRIPOS>ATOM
      1 C          62.4977   89.1350   11.2804 C.ar    1  UNL1        0.0887
      2 C          62.7636   90.1561   12.3465 C.ar    1  UNL1        0.0375
      3 C          63.2841   89.7243   13.6855 C.ar    1  UNL1        0.1088
      4 C          63.5386   88.2715   13.9582 C.ar    1  UNL1        0.1552
      5 C          63.2726   87.2504   12.8920 C.ar    1  UNL1        0.0544
      6 C          62.7522   87.6822   11.5531 C.ar    1  UNL1        0.0703
      7 O          64.0591   87.8397   15.2972 O.3     1  UNL1       -0.4701
      8 C          64.6964   86.4910   15.4547 C.3     1  UNL1        0.2525
      9 N          62.4863   86.6611   10.4870 N.pl3   1  UNL1       -0.2820
     10 C          62.4439   86.8322    9.4078 C.3     1  UNL1        0.1174
     11 C          62.2427   85.2297   10.8635 C.2     1  UNL1        0.0815
     12 C          63.3961   84.2773   10.9769 C.2     1  UNL1        0.0778
     13 N          63.1525   82.8459   11.3533 N.pl3   1  UNL1       -0.3021
     14 C          63.6108   81.7433   10.4455 C.3     1  UNL1        0.1123
     15 C          62.4507   82.5171   12.6376 C.3     1  UNL1        0.1123
     16 N          61.9772   89.5669    9.9415 N.am    1  UNL1       -0.1741
     17 C          60.4990   89.6701    9.7093 C.2     1  UNL1        0.2692
     18 O          59.7427   90.0086   10.4228 O.2     1  UNL1       -0.2680
     19 C          59.3052   87.9302    8.1934 C.2     1  UNL1        0.0049
     20 C          59.9198   89.2857    8.3800 C.2     1  UNL1        0.0598
     21 N          63.5500   90.7454   14.7516 N.pl3   1  UNL1       -0.1745
     22 C          64.7026   91.6949   14.6100 C.ar    1  UNL1        0.2409
     23 N          65.5916   91.9758   15.7850 N.ar    1  UNL1       -0.2106
     24 C          66.7442   92.9253   15.6434 C.ar    1  UNL1        0.1034
     25 C          67.0077   93.5940   14.3268 C.ar    1  UNL1        0.0400
     26 C          66.1186   93.3131   13.1517 C.ar    1  UNL1        0.0873
     27 N          64.9661   92.3636   13.2934 N.ar    1  UNL1       -0.2121
     28 C          66.3820   93.9817   11.8351 C.ar    1  UNL1        0.0364
     29 C          65.9039   95.3435   11.4265 C.ar    1  UNL1        0.0774
     30 N          66.3963   95.6093   10.0348 N.ar    1  UNL1       -0.3240
     31 C          66.1496   96.8541    9.2350 C.3     1  UNL1        0.1305
     32 C          67.1788   94.4119    9.5832 C.ar    1  UNL1        0.0600
     33 C          67.8981   94.1075    8.3027 C.ar    1  UNL1        0.0172
     34 C          68.6086   92.7972    8.1348 C.ar    1  UNL1        0.0015
     35 C          68.5998   91.7913    9.2474 C.ar    1  UNL1        0.0001
     36 C          67.8804   92.0956   10.5280 C.ar    1  UNL1        0.0015
     37 C          67.1699   93.4059   10.6959 C.ar    1  UNL1        0.0187
@<TRIPOS>BOND
     1    19    20    2
     2    20    17    1
     3    17    18    2
     4    17    16   am
     5    16     1    1
     6     1     2   ar
     7     2     3   ar
     8     3    21    1
     9    21    22    1
    10    22    23   ar
    11    23    24   ar
    12    24    25   ar
    13    25    26   ar
    14    26    28    1
    15    28    29   ar
    16    29    30   ar
    17    30    31    1
    18    30    32   ar
    19    32    33   ar
    20    33    34   ar
    21    34    35   ar
    22    35    36   ar
    23    36    37   ar
    24    26    27   ar
    25     3     4   ar
    26     4     7    1
    27     7     8    1
    28     4     5   ar
    29     5     6   ar
    30     6     9    1
    31     9    10    1
    32     9    11    1
    33    11    12    2
    34    12    13    1
    35    13    14    1
    36    13    15    1
    37     6     1   ar
    38    27    22   ar
    39    37    28   ar
    40    37    32   ar
@<TRIPOS>MOLECULE
*****
 37 40 0 0 0
SMALL
GASTEIGER

@<TRIPOS>ATOM
      1 C          62.3863   86.6148   10.8700 C.ar    1  UNL1        0.0887
      2 C          62.7621   86.6695   12.3211 C.ar    1  UNL1        0.0375
      3 C          63.3567   85.4645   12.9879 C.ar    1  UNL1        0.1088
      4 C          63.5753   84.2048   12.2035 C.ar    1  UNL1        0.1552
      5 C          63.1995   84.1500   10.7523 C.ar    1  UNL1        0.0544
      6 C          62.6050   85.3550   10.0856 C.ar    1  UNL1        0.0703
      7 O          64.1699   82.9998   12.8703 O.3     1  UNL1       -0.4701
      8 C          63.5770   81.6425   12.6332 C.3     1  UNL1        0.2525
      9 N          62.2291   85.3002    8.6345 N.pl3   1  UNL1       -0.2820
     10 C          62.8335   84.9065    7.8126 C.3     1  UNL1        0.1174
     11 C          60.8971   85.8227    8.1845 C.2     1  UNL1        0.0815
     12 C          60.7314   87.2792    7.8662 C.2     1  UNL1        0.0778
     13 N          59.3993   87.8017    7.4161 N.pl3   1  UNL1       -0.3021
     14 C          59.3064   89.1398    6.7448 C.3     1  UNL1        0.1123
     15 C          58.1600   86.9860    7.6374 C.3     1  UNL1        0.1123
     16 N          61.7917   87.8198   10.2033 N.am    1  UNL1       -0.1741
     17 C          60.6134   88.5132   10.8202 C.2     1  UNL1        0.2692
     18 O          59.8846   88.0826   11.5124 O.2     1  UNL1       -0.2680
     19 C          59.4348   90.7582   11.3869 C.2     1  UNL1        0.0049
     20 C          60.3392   89.9531   10.5015 C.2     1  UNL1        0.0598
     21 N          63.7325   85.5193   14.4390 N.pl3   1  UNL1       -0.1745
     22 C          63.6858   86.8242   15.1772 C.ar    1  UNL1        0.2409
     23 N          63.0407   86.8984   16.5293 N.ar    1  UNL1       -0.2106
     24 C          62.9940   88.2033   17.2675 C.ar    1  UNL1        0.1034
     25 C          63.5924   89.4342   16.6534 C.ar    1  UNL1        0.0400
     26 C          64.2374   89.3600   15.3012 C.ar    1  UNL1        0.0873
     27 N          64.2841   88.0551   14.5631 N.ar    1  UNL1       -0.2121
     28 C          64.8358   90.5909   14.6871 C.ar    1  UNL1        0.0364
     29 C          65.7623   91.5545   15.3676 C.ar    1  UNL1        0.0774
     30 N          66.1117   92.6333   14.3858 N.ar    1  UNL1       -0.3240
     31 C          67.0134   93.8036   14.6457 C.3     1  UNL1        0.1305
     32 C          65.4013   92.3365   13.0985 C.ar    1  UNL1        0.0600
     33 C          65.3705   93.0525   11.7809 C.ar    1  UNL1        0.0172
     34 C          64.5512   92.5062   10.6494 C.ar    1  UNL1        0.0015
     35 C          63.7626   91.2439   10.8356 C.ar    1  UNL1        0.0001
     36 C          63.7933   90.5279   12.1533 C.ar    1  UNL1        0.0015
     37 C          64.6127   91.0741   13.2847 C.ar    1  UNL1        0.0187
@<TRIPOS>BOND
     1    19    20    2
     2    20    17    1
     3    17    18    2
     4    17    16   am
     5    16     1    1
     6     1     2   ar
     7     2     3   ar
     8     3    21    1
     9    21    22    1
    10    22    23   ar
    11    23    24   ar
    12    24    25   ar
    13    25    26   ar
    14    26    28    1
    15    28    29   ar
    16    29    30   ar
    17    30    31    1
    18    30    32   ar
    19    32    33   ar
    20    33    34   ar
    21    34    35   ar
    22    35    36   ar
    23    36    37   ar
    24    26    27   ar
    25     3     4   ar
    26     4     7    1
    27     7     8    1
    28     4     5   ar
    29     5     6   ar
    30     6     9    1
    31     9    10    1
    32     9    11    1
    33    11    12    2
    34    12    13    1
    35    13    14    1
    36    13    15    1
    37     6     1   ar
    38    27    22   ar
    39    37    28   ar
    40    37    32   ar
