@<TRIPOS>MOLECULE
*****
 35 40 0 0 0
SMALL
GASTEIGER

@<TRIPOS>ATOM
      1 C          43.6424   83.7950   15.2039 C.ar    1  UNL1        0.1028
      2 C          43.6441   84.0212   13.7210 C.ar    1  UNL1        0.0131
      3 C          43.6471   82.8502   12.7837 C.ar    1  UNL1       -0.0015
      4 C          43.6489   81.3253   13.0024 C.ar    1  UNL1        0.0035
      5 C          43.6460   82.1182   14.2756 C.ar    1  UNL1        0.0358
      6 C          43.6436   82.3977   15.7493 C.ar    1  UNL1        0.1545
      7 O          43.6420   82.1259   17.2245 O.3     1  UNL1       -0.4528
      8 C          43.6413   81.3396   18.5018 C.ar    1  UNL1        0.1454
      9 C          43.6385   81.7215   20.1603 C.ar    1  UNL1        0.0375
     10 C          43.6381   80.8232   21.3615 C.ar    1  UNL1        0.0032
     11 C          43.6404   79.3337   21.1842 C.ar    1  UNL1        0.0014
     12 C          43.6400   78.4703   22.4108 C.ar    1  UNL1        0.0001
     13 C          43.6422   76.9763   22.2763 C.ar    1  UNL1        0.0013
     14 C          43.6450   76.3459   20.9151 C.ar    1  UNL1        0.0149
     15 C          43.6455   77.2093   19.6886 C.ar    1  UNL1        0.0539
     16 C          43.6432   78.7033   19.8231 C.ar    1  UNL1        0.0167
     17 C          43.6417   80.1449   19.4089 C.ar    1  UNL1        0.0387
     18 N          43.6483   75.8648   19.0235 N.am    1  UNL1       -0.2575
     19 C          43.6499   74.4089   19.3842 C.3     1  UNL1        0.1001
     20 C          43.6528   73.6159   18.1110 C.3     1  UNL1        0.0470
     21 C          43.6540   74.3060   16.5203 C.3     1  UNL1        0.1338
     22 N          43.6561   74.3021   15.0204 N.3     1  UNL1       -0.2909
     23 C          43.6572   74.8402   13.6202 C.3     1  UNL1        0.0752
     24 C          43.6574   75.8479   12.5091 C.3     1  UNL1        0.0625
     25 C          43.6564   77.1889   11.8370 C.ar    1  UNL1        0.0593
     26 C          43.6591   76.5921   10.4608 C.ar    1  UNL1        0.1134
     27 N          43.6589   77.7166    9.4680 N.ar    1  UNL1       -0.2227
     28 C          43.6560   79.0083   10.2306 C.ar    1  UNL1        0.1786
     29 N          43.6545   78.6822   11.6947 N.ar    1  UNL1       -0.3082
     30 C          43.6519   80.1260   12.1015 C.3     1  UNL1        0.1341
     31 C          43.6513   74.8514   17.9176 C.2     1  UNL1        0.2436
     32 O          43.6513   74.2968   18.4903 O.2     1  UNL1       -0.2731
     33 H          42.8242   73.7217   14.9126 H       1  UNL1        0.1236
     34 N          43.6364   86.1371   17.0785 N.1     1  UNL1       -0.1907
     35 C          43.6394   84.9661   16.1412 C.1     1  UNL1        0.1035
@<TRIPOS>BOND
     1    34    35    3
     2    35     1    1
     3     1     2   ar
     4     2     3   ar
     5     3     4   ar
     6     4     5   ar
     7     5     6   ar
     8     6     7    1
     9     7     8    1
    10     8     9   ar
    11     9    10   ar
    12    10    11   ar
    13    11    12   ar
    14    12    13   ar
    15    13    14   ar
    16    14    15   ar
    17    15    16   ar
    18    16    17   ar
    19    15    18    1
    20    18    19    1
    21    19    20    1
    22    20    21    1
    23    21    22    1
    24    22    23    1
    25    23    24    1
    26    24    25    1
    27    25    26   ar
    28    26    27   ar
    29    27    28   ar
    30    28    29   ar
    31    29    30    1
    32    21    31    1
    33    31    32    2
    34     6     1   ar
    35    17     8   ar
    36    31    18   am
    37    30     4    1
    38    16    11   ar
    39    29    25   ar
    40    22    33    1
@<TRIPOS>MOLECULE
*****
 35 40 0 0 0
SMALL
GASTEIGER

@<TRIPOS>ATOM
      1 C          59.7736   89.0525    7.8330 C.ar    1  UNL1        0.1028
      2 C          59.0426   88.8774    6.5349 C.ar    1  UNL1        0.0131
      3 C          59.4117   89.7159    5.3472 C.ar    1  UNL1       -0.0015
      4 C          60.4631   90.8191    5.1219 C.ar    1  UNL1        0.0035
      5 C          60.4663   90.2564    6.5123 C.ar    1  UNL1        0.0358
      6 C          60.8738   90.0661    7.9433 C.ar    1  UNL1        0.1545
      7 O          61.6306   90.2741    9.2216 O.3     1  UNL1       -0.4528
      8 C          62.6345   90.8521   10.1745 C.ar    1  UNL1        0.1454
      9 C          63.0504   90.5893   11.8037 C.ar    1  UNL1        0.0375
     10 C          64.0949   91.2477   12.6554 C.ar    1  UNL1        0.0032
     11 C          64.9668   92.3222   12.0764 C.ar    1  UNL1        0.0014
     12 C          65.9994   92.9555   12.9612 C.ar    1  UNL1        0.0001
     13 C          66.8911   94.0336   12.4203 C.ar    1  UNL1        0.0013
     14 C          66.7503   94.4783   10.9946 C.ar    1  UNL1        0.0149
     15 C          65.7178   93.8449   10.1099 C.ar    1  UNL1        0.0539
     16 C          64.8261   92.7668   10.6508 C.ar    1  UNL1        0.0167
     17 C          63.7498   91.7222   10.6733 C.ar    1  UNL1        0.0387
     18 N          66.3046   94.8108    9.1237 N.am    1  UNL1       -0.2575
     19 C          67.3686   95.8653    9.0480 C.3     1  UNL1        0.1001
     20 C          67.3654   96.4281    7.6576 C.3     1  UNL1        0.0470
     21 C          66.2983   95.9171    6.3901 C.3     1  UNL1        0.1338
     22 N          65.7060   95.9081    5.0121 N.3     1  UNL1       -0.2909
     23 C          64.8105   95.5083    3.8771 C.3     1  UNL1        0.0752
     24 C          63.7325   94.7717    3.1387 C.3     1  UNL1        0.0625
     25 C          62.6177   93.7977    2.8963 C.ar    1  UNL1        0.0593
     26 C          62.4496   94.2179    1.4663 C.ar    1  UNL1        0.1134
     27 N          61.3447   93.3979    0.8690 N.ar    1  UNL1       -0.2227
     28 C          60.8299   92.4709    1.9300 C.ar    1  UNL1        0.1786
     29 N          61.6167   92.7180    3.1830 N.ar    1  UNL1       -0.3082
     30 C          60.8646   91.6783    3.9598 C.3     1  UNL1        0.1341
     31 C          66.5072   95.5341    7.8253 C.2     1  UNL1        0.2436
     32 O          67.0851   95.9392    8.1960 O.2     1  UNL1       -0.2731
     33 H          66.5842   95.7497    4.5180 H       1  UNL1        0.1236
     34 N          59.0353   87.3755   10.2084 N.1     1  UNL1       -0.1907
     35 C          59.4044   88.2140    9.0207 C.1     1  UNL1        0.1035
@<TRIPOS>BOND
     1    34    35    3
     2    35     1    1
     3     1     2   ar
     4     2     3   ar
     5     3     4   ar
     6     4     5   ar
     7     5     6   ar
     8     6     7    1
     9     7     8    1
    10     8     9   ar
    11     9    10   ar
    12    10    11   ar
    13    11    12   ar
    14    12    13   ar
    15    13    14   ar
    16    14    15   ar
    17    15    16   ar
    18    16    17   ar
    19    15    18    1
    20    18    19    1
    21    19    20    1
    22    20    21    1
    23    21    22    1
    24    22    23    1
    25    23    24    1
    26    24    25    1
    27    25    26   ar
    28    26    27   ar
    29    27    28   ar
    30    28    29   ar
    31    29    30    1
    32    21    31    1
    33    31    32    2
    34     6     1   ar
    35    17     8   ar
    36    31    18   am
    37    30     4    1
    38    16    11   ar
    39    29    25   ar
    40    22    33    1
