@<TRIPOS>MOLECULE
*****
 24 26 0 0 0
SMALL
GASTEIGER

@<TRIPOS>ATOM
      1 N          61.4352   89.7554   12.6705 N.pl3   1  UNL1       -0.2150
      2 H          60.6207   90.0342   13.1480 H       1  UNL1        0.1737
      3 C          62.7730   90.2813   13.0991 C.ar    1  UNL1        0.0648
      4 C          63.2920   89.9800   14.4738 C.ar    1  UNL1        0.0160
      5 C          64.6297   90.5059   14.9024 C.ar    1  UNL1        0.0044
      6 C          65.4486   91.3331   13.9563 C.ar    1  UNL1        0.0363
      7 C          64.9297   91.6345   12.5816 C.ar    1  UNL1        0.0044
      8 C          63.5919   91.1086   12.1530 C.ar    1  UNL1        0.0160
      9 C          66.7864   91.8591   14.3850 C.ar    1  UNL1        0.1664
     10 C          68.0025   91.9883   13.5164 C.ar    1  UNL1        0.1396
     11 N          69.1107   92.5572   14.3520 N.ar    1  UNL1       -0.2026
     12 C          68.5795   92.7795   15.7371 C.ar    1  UNL1        0.2851
     13 O          67.1430   92.3480   15.7575 O.2     1  UNL1       -0.4311
     14 O          60.2485   89.6434   10.9158 O.2     1  UNL1       -0.1499
     15 S          61.3385   88.8046   11.5143 S.O2    1  UNL1        0.0736
     16 O          62.4284   87.9659   12.1129 O.2     1  UNL1       -0.1499
     17 C          61.2418   87.8538   10.3582 C.ar    1  UNL1        0.1268
     18 C          62.3466   86.8728   10.0995 C.ar    1  UNL1        0.0316
     19 C          62.2499   85.9220    8.9434 C.ar    1  UNL1        0.0599
     20 CL         63.3548   84.9410    8.6847 Cl      1  UNL1       -0.0822
     21 C          61.0484   85.9523    8.0459 C.ar    1  UNL1        0.0229
     22 C          59.9436   86.9333    8.3046 C.ar    1  UNL1        0.0599
     23 CL         58.7420   86.9635    7.4071 Cl      1  UNL1       -0.0822
     24 C          60.0402   87.8841    9.4607 C.ar    1  UNL1        0.0316
@<TRIPOS>BOND
     1    14    15    2
     2    15    16    2
     3    15     1    1
     4     1     3    1
     5     3     4   ar
     6     4     5   ar
     7     5     6   ar
     8     6     9    1
     9     9    10   ar
    10    10    11   ar
    11    11    12   ar
    12    12    13   ar
    13     6     7   ar
    14     7     8   ar
    15    15    17    1
    16    17    18   ar
    17    18    19   ar
    18    19    20    1
    19    19    21   ar
    20    21    22   ar
    21    22    23    1
    22    22    24   ar
    23     8     3   ar
    24    24    17   ar
    25    13     9   ar
    26     1     2    1
@<TRIPOS>MOLECULE
*****
 24 26 0 0 0
SMALL
GASTEIGER

@<TRIPOS>ATOM
      1 N          61.4374   89.7582   12.6701 N.pl3   1  UNL1       -0.2150
      2 H          60.6237   90.0327   13.1513 H       1  UNL1        0.1737
      3 C          62.7745   90.2908   13.0928 C.ar    1  UNL1        0.0648
      4 C          63.3025   89.9894   14.4640 C.ar    1  UNL1        0.0160
      5 C          64.6395   90.5220   14.8866 C.ar    1  UNL1        0.0044
      6 C          65.4485   91.3560   13.9380 C.ar    1  UNL1        0.0363
      7 C          64.9206   91.6574   12.5668 C.ar    1  UNL1        0.0044
      8 C          63.5836   91.1248   12.1441 C.ar    1  UNL1        0.0160
      9 C          66.7856   91.8887   14.3607 C.ar    1  UNL1        0.1664
     10 C          68.0167   91.9590   13.5066 C.ar    1  UNL1        0.1396
     11 N          69.1183   92.5583   14.3297 N.ar    1  UNL1       -0.2026
     12 C          68.5680   92.8582   15.6925 C.ar    1  UNL1        0.2851
     13 O          67.1263   92.4444   15.7117 O.2     1  UNL1       -0.4311
     14 O          60.2460   89.6428   10.9188 O.2     1  UNL1       -0.1499
     15 S          61.3403   88.8073   11.5141 S.O2    1  UNL1        0.0736
     16 O          62.4345   87.9717   12.1094 O.2     1  UNL1       -0.1499
     17 C          61.2431   87.8563   10.3581 C.ar    1  UNL1        0.1268
     18 C          60.0441   87.8907    9.4574 C.ar    1  UNL1        0.0316
     19 C          59.9470   86.9398    8.3014 C.ar    1  UNL1        0.0599
     20 CL         58.7480   86.9741    7.4007 Cl      1  UNL1       -0.0822
     21 C          61.0488   85.9545    8.0462 C.ar    1  UNL1        0.0229
     22 C          62.2477   85.9201    8.9469 C.ar    1  UNL1        0.0599
     23 CL         63.3496   84.9347    8.6916 Cl      1  UNL1       -0.0822
     24 C          62.3449   86.8710   10.1028 C.ar    1  UNL1        0.0316
@<TRIPOS>BOND
     1    14    15    2
     2    15    16    2
     3    15     1    1
     4     1     3    1
     5     3     4   ar
     6     4     5   ar
     7     5     6   ar
     8     6     9    1
     9     9    10   ar
    10    10    11   ar
    11    11    12   ar
    12    12    13   ar
    13     6     7   ar
    14     7     8   ar
    15    15    17    1
    16    17    18   ar
    17    18    19   ar
    18    19    20    1
    19    19    21   ar
    20    21    22   ar
    21    22    23    1
    22    22    24   ar
    23     8     3   ar
    24    24    17   ar
    25    13     9   ar
    26     1     2    1
@<TRIPOS>MOLECULE
*****
 24 26 0 0 0
SMALL
GASTEIGER

@<TRIPOS>ATOM
      1 N          63.5980   91.6822   12.6718 N.pl3   1  UNL1       -0.2150
      2 H          62.8237   92.2060   12.9807 H       1  UNL1        0.1737
      3 C          63.6980   90.2232   13.0058 C.ar    1  UNL1        0.0648
      4 C          63.1243   89.1990   12.0721 C.ar    1  UNL1        0.0160
      5 C          63.2243   87.7402   12.4061 C.ar    1  UNL1        0.0044
      6 C          63.8980   87.3055   13.6739 C.ar    1  UNL1        0.0363
      7 C          64.4717   88.3297   14.6076 C.ar    1  UNL1        0.0044
      8 C          64.3717   89.7886   14.2735 C.ar    1  UNL1        0.0160
      9 C          63.9980   85.8465   14.0079 C.ar    1  UNL1        0.1664
     10 C          64.1555   85.2654   15.3818 C.ar    1  UNL1        0.1396
     11 N          64.2129   83.7723   15.2497 N.ar    1  UNL1       -0.2026
     12 C          64.0909   83.4307   13.7942 C.ar    1  UNL1        0.2851
     13 O          63.9581   84.7126   13.0268 O.2     1  UNL1       -0.4311
     14 O          63.9745   91.9509   10.6015 O.2     1  UNL1       -0.1499
     15 S          64.6776   92.3431   11.8671 S.O2    1  UNL1        0.0736
     16 O          65.3808   92.7353   13.1326 O.2     1  UNL1       -0.1499
     17 C          65.7573   93.0040   11.0624 C.ar    1  UNL1        0.1268
     18 C          65.8136   94.5000   10.9685 C.ar    1  UNL1        0.0316
     19 C          66.8932   95.1610   10.1639 C.ar    1  UNL1        0.0599
     20 CL         66.9495   96.6570   10.0701 Cl      1  UNL1       -0.0822
     21 C          67.9166   94.3259    9.4531 C.ar    1  UNL1        0.0229
     22 C          67.8604   92.8299    9.5469 C.ar    1  UNL1        0.0599
     23 CL         68.8838   91.9948    8.8361 Cl      1  UNL1       -0.0822
     24 C          66.7807   92.1690   10.3516 C.ar    1  UNL1        0.0316
@<TRIPOS>BOND
     1    14    15    2
     2    15    16    2
     3    15     1    1
     4     1     3    1
     5     3     4   ar
     6     4     5   ar
     7     5     6   ar
     8     6     9    1
     9     9    10   ar
    10    10    11   ar
    11    11    12   ar
    12    12    13   ar
    13     6     7   ar
    14     7     8   ar
    15    15    17    1
    16    17    18   ar
    17    18    19   ar
    18    19    20    1
    19    19    21   ar
    20    21    22   ar
    21    22    23    1
    22    22    24   ar
    23     8     3   ar
    24    24    17   ar
    25    13     9   ar
    26     1     2    1
@<TRIPOS>MOLECULE
*****
 24 26 0 0 0
SMALL
GASTEIGER

@<TRIPOS>ATOM
      1 N          63.5790   91.6883   12.6440 N.pl3   1  UNL1       -0.2150
      2 H          62.8017   92.2110   12.9469 H       1  UNL1        0.1737
      3 C          63.6774   90.2290   12.9770 C.ar    1  UNL1        0.0648
      4 C          63.1085   89.2057   12.0394 C.ar    1  UNL1        0.0160
      5 C          63.2069   87.7465   12.3725 C.ar    1  UNL1        0.0044
      6 C          63.8743   87.3106   13.6432 C.ar    1  UNL1        0.0363
      7 C          64.4433   88.3339   14.5807 C.ar    1  UNL1        0.0044
      8 C          64.3448   89.7931   14.2477 C.ar    1  UNL1        0.0160
      9 C          63.9727   85.8513   13.9762 C.ar    1  UNL1        0.1664
     10 C          64.1764   85.2710   15.3444 C.ar    1  UNL1        0.1396
     11 N          64.2143   83.7772   15.2134 N.ar    1  UNL1       -0.2026
     12 C          64.0341   83.4343   13.7642 C.ar    1  UNL1        0.2851
     13 O          63.8848   84.7162   12.9997 O.2     1  UNL1       -0.4311
     14 O          65.3588   92.7391   13.1213 O.2     1  UNL1       -0.1499
     15 S          64.6649   92.3511   11.8494 S.O2    1  UNL1        0.0736
     16 O          63.9710   91.9631   10.5774 O.2     1  UNL1       -0.1499
     17 C          65.7509   93.0140   11.0547 C.ar    1  UNL1        0.1268
     18 C          66.7754   92.1803   10.3438 C.ar    1  UNL1        0.0316
     19 C          67.8613   92.8431    9.5491 C.ar    1  UNL1        0.0599
     20 CL         68.8859   92.0095    8.8382 Cl      1  UNL1       -0.0822
     21 C          67.9226   94.3395    9.4653 C.ar    1  UNL1        0.0229
     22 C          66.8981   95.1731   10.1762 C.ar    1  UNL1        0.0599
     23 CL         66.9594   96.6695   10.0924 Cl      1  UNL1       -0.0822
     24 C          65.8122   94.5103   10.9709 C.ar    1  UNL1        0.0316
@<TRIPOS>BOND
     1    14    15    2
     2    15    16    2
     3    15     1    1
     4     1     3    1
     5     3     4   ar
     6     4     5   ar
     7     5     6   ar
     8     6     9    1
     9     9    10   ar
    10    10    11   ar
    11    11    12   ar
    12    12    13   ar
    13     6     7   ar
    14     7     8   ar
    15    15    17    1
    16    17    18   ar
    17    18    19   ar
    18    19    20    1
    19    19    21   ar
    20    21    22   ar
    21    22    23    1
    22    22    24   ar
    23     8     3   ar
    24    24    17   ar
    25    13     9   ar
    26     1     2    1
@<TRIPOS>MOLECULE
*****
 24 26 0 0 0
SMALL
GASTEIGER

@<TRIPOS>ATOM
      1 N          62.2332   89.2853   12.3805 N.pl3   1  UNL1       -0.2150
      2 H          61.5301   89.4514   13.0493 H       1  UNL1        0.1737
      3 C          63.1507   90.3968   11.9648 C.ar    1  UNL1        0.0648
      4 C          64.1012   90.9960   12.9585 C.ar    1  UNL1        0.0160
      5 C          65.0186   92.1075   12.5428 C.ar    1  UNL1        0.0044
      6 C          64.9856   92.6198   11.1334 C.ar    1  UNL1        0.0363
      7 C          64.0351   92.0206   10.1397 C.ar    1  UNL1        0.0044
      8 C          63.1176   90.9091   10.5554 C.ar    1  UNL1        0.0160
      9 C          65.9030   93.7314   10.7177 C.ar    1  UNL1        0.1664
     10 C          67.1405   93.5874    9.8822 C.ar    1  UNL1        0.1396
     11 N          67.7464   94.9490    9.7127 N.ar    1  UNL1       -0.2026
     12 C          66.8834   95.9346   10.4433 C.ar    1  UNL1        0.2851
     13 O          65.7441   95.1821   11.0644 O.2     1  UNL1       -0.4311
     14 O          63.4476   87.5940   12.7863 O.2     1  UNL1       -0.1499
     15 S          62.3870   87.9206   11.7772 S.O2    1  UNL1        0.0736
     16 O          61.3264   88.2473   10.7680 O.2     1  UNL1       -0.1499
     17 C          62.5407   86.5559   11.1738 C.ar    1  UNL1        0.1268
     18 C          62.6020   86.3974    9.6835 C.ar    1  UNL1        0.0316
     19 C          62.7557   85.0328    9.0801 C.ar    1  UNL1        0.0599
     20 CL         62.8170   84.8742    7.5897 Cl      1  UNL1       -0.0822
     21 C          62.8482   83.8267    9.9670 C.ar    1  UNL1        0.0229
     22 C          62.7868   83.9852   11.4574 C.ar    1  UNL1        0.0599
     23 CL         62.8793   82.7790   12.3443 Cl      1  UNL1       -0.0822
     24 C          62.6331   85.3498   12.0608 C.ar    1  UNL1        0.0316
@<TRIPOS>BOND
     1    14    15    2
     2    15    16    2
     3    15     1    1
     4     1     3    1
     5     3     4   ar
     6     4     5   ar
     7     5     6   ar
     8     6     9    1
     9     9    10   ar
    10    10    11   ar
    11    11    12   ar
    12    12    13   ar
    13     6     7   ar
    14     7     8   ar
    15    15    17    1
    16    17    18   ar
    17    18    19   ar
    18    19    20    1
    19    19    21   ar
    20    21    22   ar
    21    22    23    1
    22    22    24   ar
    23     8     3   ar
    24    24    17   ar
    25    13     9   ar
    26     1     2    1
@<TRIPOS>MOLECULE
*****
 24 26 0 0 0
SMALL
GASTEIGER

@<TRIPOS>ATOM
      1 N          62.1636   89.2768   12.2874 N.pl3   1  UNL1       -0.2150
      2 H          61.4345   89.4469   12.9267 H       1  UNL1        0.1737
      3 C          63.0911   90.3884   11.8945 C.ar    1  UNL1        0.0648
      4 C          63.0734   90.9195   10.4919 C.ar    1  UNL1        0.0160
      5 C          64.0008   92.0310   10.0990 C.ar    1  UNL1        0.0044
      6 C          64.9460   92.6114   11.1089 C.ar    1  UNL1        0.0363
      7 C          64.9637   92.0803   12.5116 C.ar    1  UNL1        0.0044
      8 C          64.0363   90.9688   12.9044 C.ar    1  UNL1        0.0160
      9 C          65.8735   93.7230   10.7160 C.ar    1  UNL1        0.1664
     10 C          66.0742   95.0089   11.4618 C.ar    1  UNL1        0.1396
     11 N          67.0878   95.8244   10.7151 N.ar    1  UNL1       -0.2026
     12 C          67.5134   95.0425    9.5078 C.ar    1  UNL1        0.2851
     13 O          66.7629   93.7438    9.5083 O.2     1  UNL1       -0.4311
     14 O          63.3925   87.6080   12.7398 O.2     1  UNL1       -0.1499
     15 S          62.3471   87.9062   11.7063 S.O2    1  UNL1        0.0736
     16 O          61.3017   88.2045   10.6728 O.2     1  UNL1       -0.1499
     17 C          62.5305   86.5356   11.1251 C.ar    1  UNL1        0.1268
     18 C          62.6658   85.3484   12.0319 C.ar    1  UNL1        0.0316
     19 C          62.8492   83.9778   11.4508 C.ar    1  UNL1        0.0599
     20 CL         62.9844   82.7906   12.3576 Cl      1  UNL1       -0.0822
     21 C          62.8974   83.7944    9.9629 C.ar    1  UNL1        0.0229
     22 C          62.7621   84.9816    9.0560 C.ar    1  UNL1        0.0599
     23 CL         62.8103   84.7981    7.5680 Cl      1  UNL1       -0.0822
     24 C          62.5787   86.3522    9.6372 C.ar    1  UNL1        0.0316
@<TRIPOS>BOND
     1    14    15    2
     2    15    16    2
     3    15     1    1
     4     1     3    1
     5     3     4   ar
     6     4     5   ar
     7     5     6   ar
     8     6     9    1
     9     9    10   ar
    10    10    11   ar
    11    11    12   ar
    12    12    13   ar
    13     6     7   ar
    14     7     8   ar
    15    15    17    1
    16    17    18   ar
    17    18    19   ar
    18    19    20    1
    19    19    21   ar
    20    21    22   ar
    21    22    23    1
    22    22    24   ar
    23     8     3   ar
    24    24    17   ar
    25    13     9   ar
    26     1     2    1
@<TRIPOS>MOLECULE
*****
 24 26 0 0 0
SMALL
GASTEIGER

@<TRIPOS>ATOM
      1 N          61.6507   87.9047   11.4366 N.pl3   1  UNL1       -0.2150
      2 H          60.6992   87.9840   11.1968 H       1  UNL1        0.1737
      3 C          62.5169   89.1285   11.4834 C.ar    1  UNL1        0.0648
      4 C          63.1915   89.5214   12.7642 C.ar    1  UNL1        0.0160
      5 C          64.0576   90.7452   12.8110 C.ar    1  UNL1        0.0044
      6 C          64.2491   91.5761   11.5769 C.ar    1  UNL1        0.0363
      7 C          63.5745   91.1832   10.2961 C.ar    1  UNL1        0.0044
      8 C          62.7084   89.9594   10.2493 C.ar    1  UNL1        0.0160
      9 C          65.1152   92.7999   11.6237 C.ar    1  UNL1        0.1664
     10 C          65.9587   93.2392   12.7837 C.ar    1  UNL1        0.1396
     11 N          66.6547   94.5100   12.3957 N.ar    1  UNL1       -0.2026
     12 C          66.2414   94.8561   10.9959 C.ar    1  UNL1        0.2851
     13 O          65.2899   93.7992   10.5188 O.2     1  UNL1       -0.4311
     14 O          61.2422   85.9117   10.8358 O.2     1  UNL1       -0.1499
     15 S          62.2344   86.5602   11.7550 S.O2    1  UNL1        0.0736
     16 O          63.2267   87.2086   12.6742 O.2     1  UNL1       -0.1499
     17 C          62.8182   85.2155   12.0734 C.ar    1  UNL1        0.1268
     18 C          63.2349   84.8924   13.4777 C.ar    1  UNL1        0.0316
     19 C          63.8187   83.5479   13.7962 C.ar    1  UNL1        0.0599
     20 CL         64.2354   83.2247   15.2004 Cl      1  UNL1       -0.0822
     21 C          63.9856   82.5265   12.7104 C.ar    1  UNL1        0.0229
     22 C          63.5689   82.8497   11.3062 C.ar    1  UNL1        0.0599
     23 CL         63.7359   81.8282   10.2204 Cl      1  UNL1       -0.0822
     24 C          62.9852   84.1942   10.9877 C.ar    1  UNL1        0.0316
@<TRIPOS>BOND
     1    14    15    2
     2    15    16    2
     3    15     1    1
     4     1     3    1
     5     3     4   ar
     6     4     5   ar
     7     5     6   ar
     8     6     9    1
     9     9    10   ar
    10    10    11   ar
    11    11    12   ar
    12    12    13   ar
    13     6     7   ar
    14     7     8   ar
    15    15    17    1
    16    17    18   ar
    17    18    19   ar
    18    19    20    1
    19    19    21   ar
    20    21    22   ar
    21    22    23    1
    22    22    24   ar
    23     8     3   ar
    24    24    17   ar
    25    13     9   ar
    26     1     2    1
@<TRIPOS>MOLECULE
*****
 24 26 0 0 0
SMALL
GASTEIGER

@<TRIPOS>ATOM
      1 N          62.0027   89.8269   12.7863 N.pl3   1  UNL1       -0.2150
      2 H          61.2615   89.9112   13.4288 H       1  UNL1        0.1737
      3 C          61.8912   88.8734   11.6336 C.ar    1  UNL1        0.0648
      4 C          62.5346   87.5209   11.7141 C.ar    1  UNL1        0.0160
      5 C          62.4231   86.5675   10.5614 C.ar    1  UNL1        0.0044
      6 C          61.6681   86.9667    9.3283 C.ar    1  UNL1        0.0363
      7 C          61.0247   88.3193    9.2478 C.ar    1  UNL1        0.0044
      8 C          61.1362   89.2726   10.4004 C.ar    1  UNL1        0.0160
      9 C          61.5566   86.0133    8.1756 C.ar    1  UNL1        0.1664
     10 C          60.3028   85.6863    7.4200 C.ar    1  UNL1        0.1396
     11 N          60.6506   84.6905    6.3536 N.ar    1  UNL1       -0.2026
     12 C          62.1194   84.4019    6.4501 C.ar    1  UNL1        0.2851
     13 O          62.6794   85.2195    7.5762 O.2     1  UNL1       -0.4311
     14 O          63.1457   90.4854   14.4475 O.2     1  UNL1       -0.1499
     15 S          63.2433   90.6518   12.9599 S.O2    1  UNL1        0.0736
     16 O          63.3409   90.8182   11.4724 O.2     1  UNL1       -0.1499
     17 C          64.4841   91.4768   13.1336 C.ar    1  UNL1        0.1268
     18 C          64.9300   92.4001   12.0388 C.ar    1  UNL1        0.0316
     19 C          66.1707   93.2251   12.2124 C.ar    1  UNL1        0.0599
     20 CL         66.6167   94.1484   11.1176 Cl      1  UNL1       -0.0822
     21 C          66.9654   93.1266   13.4807 C.ar    1  UNL1        0.0229
     22 C          66.5194   92.2033   14.5755 C.ar    1  UNL1        0.0599
     23 CL         67.3142   92.1049   15.8439 Cl      1  UNL1       -0.0822
     24 C          65.2787   91.3783   14.4019 C.ar    1  UNL1        0.0316
@<TRIPOS>BOND
     1    14    15    2
     2    15    16    2
     3    15     1    1
     4     1     3    1
     5     3     4   ar
     6     4     5   ar
     7     5     6   ar
     8     6     9    1
     9     9    10   ar
    10    10    11   ar
    11    11    12   ar
    12    12    13   ar
    13     6     7   ar
    14     7     8   ar
    15    15    17    1
    16    17    18   ar
    17    18    19   ar
    18    19    20    1
    19    19    21   ar
    20    21    22   ar
    21    22    23    1
    22    22    24   ar
    23     8     3   ar
    24    24    17   ar
    25    13     9   ar
    26     1     2    1
@<TRIPOS>MOLECULE
*****
 24 26 0 0 0
SMALL
GASTEIGER

@<TRIPOS>ATOM
      1 N          61.8810   89.8623   12.6859 N.pl3   1  UNL1       -0.2150
      2 H          61.1139   89.9787   13.2920 H       1  UNL1        0.1737
      3 C          61.7952   88.8914   11.5456 C.ar    1  UNL1        0.0648
      4 C          62.5332   87.5873   11.6140 C.ar    1  UNL1        0.0160
      5 C          62.4475   86.6164   10.4738 C.ar    1  UNL1        0.0044
      6 C          61.6238   86.9497    9.2653 C.ar    1  UNL1        0.0363
      7 C          60.8858   88.2538    9.1969 C.ar    1  UNL1        0.0044
      8 C          60.9716   89.2246   10.3371 C.ar    1  UNL1        0.0160
      9 C          61.5381   85.9788    8.1250 C.ar    1  UNL1        0.1664
     10 C          60.2936   85.6086    7.3739 C.ar    1  UNL1        0.1396
     11 N          60.6681   84.6087    6.3204 N.ar    1  UNL1       -0.2026
     12 C          62.1441   84.3609    6.4205 C.ar    1  UNL1        0.2851
     13 O          62.6818   85.2076    7.5358 O.2     1  UNL1       -0.4311
     14 O          63.0271   91.2067   11.5117 O.2     1  UNL1       -0.1499
     15 S          63.1353   90.6558   12.9026 S.O2    1  UNL1        0.0736
     16 O          63.2435   90.1048   14.2935 O.2     1  UNL1       -0.1499
     17 C          64.3897   91.4493   13.1194 C.ar    1  UNL1        0.1268
     18 C          65.0106   91.5128   14.4834 C.ar    1  UNL1        0.0316
     19 C          66.2650   92.3062   14.7002 C.ar    1  UNL1        0.0599
     20 CL         66.8859   92.3697   16.0642 Cl      1  UNL1       -0.0822
     21 C          66.8983   93.0361   13.5531 C.ar    1  UNL1        0.0229
     22 C          66.2774   92.9726   12.1891 C.ar    1  UNL1        0.0599
     23 CL         66.9109   93.7026   11.0419 Cl      1  UNL1       -0.0822
     24 C          65.0231   92.1792   11.9723 C.ar    1  UNL1        0.0316
@<TRIPOS>BOND
     1    14    15    2
     2    15    16    2
     3    15     1    1
     4     1     3    1
     5     3     4   ar
     6     4     5   ar
     7     5     6   ar
     8     6     9    1
     9     9    10   ar
    10    10    11   ar
    11    11    12   ar
    12    12    13   ar
    13     6     7   ar
    14     7     8   ar
    15    15    17    1
    16    17    18   ar
    17    18    19   ar
    18    19    20    1
    19    19    21   ar
    20    21    22   ar
    21    22    23    1
    22    22    24   ar
    23     8     3   ar
    24    24    17   ar
    25    13     9   ar
    26     1     2    1
