@<TRIPOS>MOLECULE
*****
 33 36 0 0 0
SMALL
GASTEIGER

@<TRIPOS>ATOM
      1 N          65.0042   90.1826   14.4023 N.ar    1  UNL1       -0.2874
      2 C          66.1124   90.9754   15.0293 C.ar    1  UNL1        0.0858
      3 C          66.7033   92.1452   14.2997 C.ar    1  UNL1        0.0705
      4 C          66.1860   92.5222   12.9432 C.ar    1  UNL1        0.1996
      5 O          66.7770   93.6921   12.2136 O.2     1  UNL1       -0.2864
      6 C          65.0777   91.7294   12.3162 C.ar    1  UNL1        0.0582
      7 C          64.5604   92.1064   10.9596 C.ar    1  UNL1        0.0340
      8 C          63.4521   91.3136   10.3326 C.ar    1  UNL1        0.1371
      9 F          62.9348   91.6906    8.9761 F       1  UNL1       -0.2045
     10 C          62.8612   90.1437   11.0622 C.ar    1  UNL1        0.0171
     11 C          63.3785   89.7667   12.4188 C.ar    1  UNL1        0.0720
     12 CL         62.7876   88.5969   13.1483 Cl      1  UNL1       -0.0810
     13 C          64.4868   90.5596   13.0457 C.ar    1  UNL1        0.0788
     14 N          64.5303   85.0470   15.0360 N.pl3   1  UNL1       -0.3408
     15 C          64.1762   86.4450   15.4487 C.ar    1  UNL1        0.1548
     16 N          64.7672   87.6148   14.7191 N.ar    1  UNL1       -0.2091
     17 C          64.4132   89.0128   15.1319 C.ar    1  UNL1        0.1769
     18 C          63.4681   89.2409   16.2742 C.ar    1  UNL1        0.1767
     19 F          63.1141   90.6389   16.6869 F       1  UNL1       -0.2009
     20 C          62.8771   88.0711   17.0037 C.ar    1  UNL1        0.0652
     21 C          63.2312   86.6731   16.5910 C.ar    1  UNL1        0.1734
     22 F          62.6402   85.5033   17.3206 F       1  UNL1       -0.2012
     23 H          65.1505   84.8973   14.2862 H       1  UNL1        0.1438
     24 H          64.1424   84.2792   15.5148 H       1  UNL1        0.1438
     25 C          61.7529   89.3509   10.4352 C.3     1  UNL1        0.0302
     26 C          61.6659   88.0442    9.7038 C.3     1  UNL1        0.0338
     27 C          60.1855   88.2297    9.5485 C.3     1  UNL1        0.1112
     28 O          59.0772   87.4369    8.9215 O.3     1  UNL1       -0.3844
     29 C          60.2725   89.5364   10.2799 C.3     1  UNL1        0.0338
     30 H          58.2376   87.9093    9.0348 H       1  UNL1        0.2103
     31 C          67.8117   92.9381   14.9267 C.2     1  UNL1        0.0774
     32 O          67.5229   93.8422   16.0882 O.co2   1  UNL1       -0.5444
     33 O          69.2087   92.8269   14.3921 O.co2   1  UNL1       -0.5444
@<TRIPOS>UNITY_ATOM_ATTR
32 1
charge -1
@<TRIPOS>BOND
     1    14    15    1
     2    15    16   ar
     3    16    17   ar
     4    17     1    1
     5     1     2   ar
     6     2     3   ar
     7     3    31    1
     8    31    32   ar
     9    31    33   ar
    10     3     4   ar
    11     4     5    2
    12     4     6   ar
    13     6     7   ar
    14     7     8   ar
    15     8     9    1
    16     8    10   ar
    17    25    10    1
    18    25    26    1
    19    26    27    1
    20    27    28    1
    21    27    29    1
    22    10    11   ar
    23    11    12    1
    24    11    13   ar
    25    17    18   ar
    26    18    19    1
    27    18    20   ar
    28    20    21   ar
    29    21    22    1
    30    21    15   ar
    31    13     1   ar
    32    13     6   ar
    33    29    25    1
    34    14    23    1
    35    14    24    1
    36    28    30    1
@<TRIPOS>MOLECULE
*****
 33 36 0 0 0
SMALL
GASTEIGER

@<TRIPOS>ATOM
      1 N          62.6312   87.6984   11.5268 N.ar    1  UNL1       -0.2874
      2 C          62.9412   89.1624   11.6290 C.ar    1  UNL1        0.0858
      3 C          63.7258   89.6831   12.7965 C.ar    1  UNL1        0.0705
      4 C          64.2005   88.7398   13.8618 C.ar    1  UNL1        0.1996
      5 O          64.9852   89.2606   15.0294 O.2     1  UNL1       -0.2864
      6 C          63.8905   87.2758   13.7596 C.ar    1  UNL1        0.0582
      7 C          64.3652   86.3325   14.8249 C.ar    1  UNL1        0.0340
      8 C          64.0553   84.8685   14.7227 C.ar    1  UNL1        0.1371
      9 F          64.5300   83.9252   15.7879 F       1  UNL1       -0.2045
     10 C          63.2706   84.3477   13.5551 C.ar    1  UNL1        0.0171
     11 C          62.7959   85.2910   12.4898 C.ar    1  UNL1        0.0720
     12 CL         62.0113   84.7703   11.3223 Cl      1  UNL1       -0.0810
     13 C          63.1059   86.7551   12.5921 C.ar    1  UNL1        0.0788
     14 N          62.4208   85.0056    7.0878 N.pl3   1  UNL1       -0.3408
     15 C          61.7413   85.8312    8.1397 C.ar    1  UNL1        0.1548
     16 N          62.5260   86.3520    9.3073 N.ar    1  UNL1       -0.2091
     17 C          61.8465   87.1776   10.3592 C.ar    1  UNL1        0.1769
     18 C          60.3824   87.4825   10.2437 C.ar    1  UNL1        0.1767
     19 F          59.7029   88.3081   11.2957 F       1  UNL1       -0.2009
     20 C          59.5977   86.9617    9.0762 C.ar    1  UNL1        0.0652
     21 C          60.2772   86.1361    8.0242 C.ar    1  UNL1        0.1734
     22 F          59.4925   85.6153    6.8567 F       1  UNL1       -0.2012
     23 H          63.3818   84.8055    7.1636 H       1  UNL1        0.1438
     24 H          61.9058   84.6638    6.3215 H       1  UNL1        0.1438
     25 C          62.9606   82.8836   13.4529 C.3     1  UNL1        0.0302
     26 C          63.4406   81.7557   12.5884 C.3     1  UNL1        0.0338
     27 C          62.5223   80.8131   13.3083 C.3     1  UNL1        0.1112
     28 O          62.2123   79.3490   13.2061 O.3     1  UNL1       -0.3844
     29 C          62.0423   81.9411   14.1728 C.3     1  UNL1        0.0338
     30 H          61.5427   79.1134   13.8671 H       1  UNL1        0.2103
     31 C          64.0358   91.1472   12.8988 C.2     1  UNL1        0.0774
     32 O          64.4790   91.9067   11.6836 O.co2   1  UNL1       -0.5444
     33 O          63.9025   91.8518   14.2163 O.co2   1  UNL1       -0.5444
@<TRIPOS>UNITY_ATOM_ATTR
32 1
charge -1
@<TRIPOS>BOND
     1    14    15    1
     2    15    16   ar
     3    16    17   ar
     4    17     1    1
     5     1     2   ar
     6     2     3   ar
     7     3    31    1
     8    31    32   ar
     9    31    33   ar
    10     3     4   ar
    11     4     5    2
    12     4     6   ar
    13     6     7   ar
    14     7     8   ar
    15     8     9    1
    16     8    10   ar
    17    25    10    1
    18    25    26    1
    19    26    27    1
    20    27    28    1
    21    27    29    1
    22    10    11   ar
    23    11    12    1
    24    11    13   ar
    25    17    18   ar
    26    18    19    1
    27    18    20   ar
    28    20    21   ar
    29    21    22    1
    30    21    15   ar
    31    13     1   ar
    32    13     6   ar
    33    29    25    1
    34    14    23    1
    35    14    24    1
    36    28    30    1
@<TRIPOS>MOLECULE
*****
 33 36 0 0 0
SMALL
GASTEIGER

@<TRIPOS>ATOM
      1 N          62.0194   86.3960   11.0852 N.ar    1  UNL1       -0.2874
      2 C          61.1261   85.8375   10.0176 C.ar    1  UNL1        0.0858
      3 C          60.5289   86.7490    8.9868 C.ar    1  UNL1        0.0705
      4 C          60.8252   88.2190    9.0237 C.ar    1  UNL1        0.1996
      5 O          60.2280   89.1305    7.9928 O.2     1  UNL1       -0.2864
      6 C          61.7185   88.7775   10.0913 C.ar    1  UNL1        0.0582
      7 C          62.0147   90.2475   10.1282 C.ar    1  UNL1        0.0340
      8 C          62.9080   90.8060   11.1959 C.ar    1  UNL1        0.1371
      9 F          63.2042   92.2760   11.2328 F       1  UNL1       -0.2045
     10 C          63.5052   89.8945   12.2268 C.ar    1  UNL1        0.0171
     11 C          63.2090   88.4245   12.1899 C.ar    1  UNL1        0.0720
     12 CL         63.8062   87.5131   13.2207 Cl      1  UNL1       -0.0810
     13 C          62.3156   87.8660   11.1221 C.ar    1  UNL1        0.0788
     14 N          62.3542   84.7831   16.0134 N.pl3   1  UNL1       -0.3408
     15 C          62.7840   84.6781   14.5802 C.ar    1  UNL1        0.1548
     16 N          62.1868   85.5896   13.5493 N.ar    1  UNL1       -0.2091
     17 C          62.6166   85.4845   12.1161 C.ar    1  UNL1        0.1769
     18 C          63.6436   84.4680   11.7137 C.ar    1  UNL1        0.1767
     19 F          64.0734   84.3630   10.2803 F       1  UNL1       -0.2009
     20 C          64.2408   83.5566   12.7444 C.ar    1  UNL1        0.0652
     21 C          63.8110   83.6616   14.1777 C.ar    1  UNL1        0.1734
     22 F          64.4082   82.7501   15.2085 F       1  UNL1       -0.2012
     23 H          61.6801   85.4503   16.2776 H       1  UNL1        0.1438
     24 H          62.7461   84.1849   16.6900 H       1  UNL1        0.1438
     25 C          64.3986   90.4531   13.2944 C.3     1  UNL1        0.0302
     26 C          65.6259   91.3153   13.3065 C.3     1  UNL1        0.0338
     27 C          65.6620   91.2429   14.8043 C.3     1  UNL1        0.1112
     28 O          66.5554   91.8015   15.8721 O.3     1  UNL1       -0.3844
     29 C          64.4346   90.3807   14.7922 C.3     1  UNL1        0.0338
     30 H          66.2343   91.5189   16.7427 H       1  UNL1        0.2103
     31 C          59.6356   86.1905    7.9191 C.2     1  UNL1        0.0774
     32 O          60.1695   85.1809    6.9467 O.co2   1  UNL1       -0.5444
     33 O          58.2082   86.6417    7.8237 O.co2   1  UNL1       -0.5444
@<TRIPOS>UNITY_ATOM_ATTR
32 1
charge -1
@<TRIPOS>BOND
     1    14    15    1
     2    15    16   ar
     3    16    17   ar
     4    17     1    1
     5     1     2   ar
     6     2     3   ar
     7     3    31    1
     8    31    32   ar
     9    31    33   ar
    10     3     4   ar
    11     4     5    2
    12     4     6   ar
    13     6     7   ar
    14     7     8   ar
    15     8     9    1
    16     8    10   ar
    17    25    10    1
    18    25    26    1
    19    26    27    1
    20    27    28    1
    21    27    29    1
    22    10    11   ar
    23    11    12    1
    24    11    13   ar
    25    17    18   ar
    26    18    19    1
    27    18    20   ar
    28    20    21   ar
    29    21    22    1
    30    21    15   ar
    31    13     1   ar
    32    13     6   ar
    33    29    25    1
    34    14    23    1
    35    14    24    1
    36    28    30    1
@<TRIPOS>MOLECULE
*****
 33 36 0 0 0
SMALL
GASTEIGER

@<TRIPOS>ATOM
      1 N          64.4579   88.9996   14.2405 N.ar    1  UNL1       -0.2874
      2 C          65.3083   89.9126   15.0730 C.ar    1  UNL1        0.0858
      3 C          65.5997   91.3055   14.5988 C.ar    1  UNL1        0.0705
      4 C          65.0407   91.7854   13.2922 C.ar    1  UNL1        0.1996
      5 O          65.3322   93.1783   12.8180 O.2     1  UNL1       -0.2864
      6 C          64.1903   90.8723   12.4597 C.ar    1  UNL1        0.0582
      7 C          63.6313   91.3521   11.1531 C.ar    1  UNL1        0.0340
      8 C          62.7808   90.4391   10.3206 C.ar    1  UNL1        0.1371
      9 F          62.2218   90.9189    9.0140 F       1  UNL1       -0.2045
     10 C          62.4894   89.0461   10.7948 C.ar    1  UNL1        0.0171
     11 C          63.0484   88.5663   12.1014 C.ar    1  UNL1        0.0720
     12 CL         62.7570   87.1734   12.5756 Cl      1  UNL1       -0.0810
     13 C          63.8989   89.4794   12.9339 C.ar    1  UNL1        0.0788
     14 N          64.8811   83.8569   13.6290 N.pl3   1  UNL1       -0.3408
     15 C          64.3780   85.0353   14.4089 C.ar    1  UNL1        0.1548
     16 N          64.6695   86.4282   13.9348 N.ar    1  UNL1       -0.2091
     17 C          64.1664   87.6066   14.7147 C.ar    1  UNL1        0.1769
     18 C          63.3718   87.3921   15.9687 C.ar    1  UNL1        0.1767
     19 F          62.8687   88.5706   16.7486 F       1  UNL1       -0.2009
     20 C          63.0804   85.9992   16.4429 C.ar    1  UNL1        0.0652
     21 C          63.5835   84.8208   15.6630 C.ar    1  UNL1        0.1734
     22 F          63.2920   83.4279   16.1372 F       1  UNL1       -0.2012
     23 H          65.4026   83.9977   12.8060 H       1  UNL1        0.1438
     24 H          64.6898   82.9427   13.9402 H       1  UNL1        0.1438
     25 C          61.6389   88.1330    9.9623 C.3     1  UNL1        0.0302
     26 C          61.8709   86.8488    9.2227 C.3     1  UNL1        0.0338
     27 C          60.4362   86.8417    8.7850 C.3     1  UNL1        0.1112
     28 O          59.5857   85.9286    7.9525 O.3     1  UNL1       -0.3844
     29 C          60.2042   88.1259    9.5247 C.3     1  UNL1        0.0338
     30 H          58.6839   86.2824    7.9033 H       1  UNL1        0.2103
     31 C          66.4502   92.2187   15.4313 C.2     1  UNL1        0.0774
     32 O          65.9169   92.7738   16.7186 O.co2   1  UNL1       -0.5444
     33 O          67.8340   92.5766   14.9763 O.co2   1  UNL1       -0.5444
@<TRIPOS>UNITY_ATOM_ATTR
32 1
charge -1
@<TRIPOS>BOND
     1    14    15    1
     2    15    16   ar
     3    16    17   ar
     4    17     1    1
     5     1     2   ar
     6     2     3   ar
     7     3    31    1
     8    31    32   ar
     9    31    33   ar
    10     3     4   ar
    11     4     5    2
    12     4     6   ar
    13     6     7   ar
    14     7     8   ar
    15     8     9    1
    16     8    10   ar
    17    25    10    1
    18    25    26    1
    19    26    27    1
    20    27    28    1
    21    27    29    1
    22    10    11   ar
    23    11    12    1
    24    11    13   ar
    25    17    18   ar
    26    18    19    1
    27    18    20   ar
    28    20    21   ar
    29    21    22    1
    30    21    15   ar
    31    13     1   ar
    32    13     6   ar
    33    29    25    1
    34    14    23    1
    35    14    24    1
    36    28    30    1
@<TRIPOS>MOLECULE
*****
 33 36 0 0 0
SMALL
GASTEIGER

@<TRIPOS>ATOM
      1 N          62.5377   84.5583   11.9122 N.ar    1  UNL1       -0.2874
      2 C          62.3738   83.1193   12.3022 C.ar    1  UNL1        0.0858
      3 C          62.7545   82.6680   13.6811 C.ar    1  UNL1        0.0705
      4 C          63.2990   83.6558   14.6700 C.ar    1  UNL1        0.1996
      5 O          63.6796   83.2044   16.0489 O.2     1  UNL1       -0.2864
      6 C          63.4628   85.0948   14.2799 C.ar    1  UNL1        0.0582
      7 C          64.0073   86.0826   15.2688 C.ar    1  UNL1        0.0340
      8 C          64.1712   87.5217   14.8787 C.ar    1  UNL1        0.1371
      9 F          64.7157   88.5095   15.8675 F       1  UNL1       -0.2045
     10 C          63.7905   87.9730   13.4997 C.ar    1  UNL1        0.0171
     11 C          63.2460   86.9853   12.5109 C.ar    1  UNL1        0.0720
     12 CL         62.8654   87.4365   11.1320 Cl      1  UNL1       -0.0810
     13 C          63.0822   85.5461   12.9010 C.ar    1  UNL1        0.0788
     14 N          59.2822   87.0756    8.7395 N.pl3   1  UNL1       -0.3408
     15 C          60.5293   86.2683    8.9469 C.ar    1  UNL1        0.1548
     16 N          60.9099   85.8169   10.3258 N.ar    1  UNL1       -0.2091
     17 C          62.1570   85.0097   10.5332 C.ar    1  UNL1        0.1769
     18 C          63.0235   84.6537    9.3617 C.ar    1  UNL1        0.1767
     19 F          64.2707   83.8464    9.5691 F       1  UNL1       -0.2009
     20 C          62.6429   85.1050    7.9828 C.ar    1  UNL1        0.0652
     21 C          61.3958   85.9123    7.7754 C.ar    1  UNL1        0.1734
     22 F          61.0152   86.3637    6.3964 F       1  UNL1       -0.2012
     23 H          58.7135   87.3092    9.5084 H       1  UNL1        0.1438
     24 H          59.0324   87.3718    7.8345 H       1  UNL1        0.1438
     25 C          63.9544   89.4121   13.1097 C.3     1  UNL1        0.0302
     26 C          64.7959   90.5540   13.5974 C.3     1  UNL1        0.0338
     27 C          64.1861   91.4473   12.5581 C.3     1  UNL1        0.1112
     28 O          64.3499   92.8864   12.1679 O.3     1  UNL1       -0.3844
     29 C          63.3446   90.3054   12.0703 C.3     1  UNL1        0.0338
     30 H          63.7596   93.0894   11.4255 H       1  UNL1        0.2103
     31 C          62.5906   81.2289   14.0713 C.2     1  UNL1        0.0774
     32 O          61.2189   80.6300   14.1698 O.co2   1  UNL1       -0.5444
     33 O          63.7985   80.3887   14.3629 O.co2   1  UNL1       -0.5444
@<TRIPOS>UNITY_ATOM_ATTR
32 1
charge -1
@<TRIPOS>BOND
     1    14    15    1
     2    15    16   ar
     3    16    17   ar
     4    17     1    1
     5     1     2   ar
     6     2     3   ar
     7     3    31    1
     8    31    32   ar
     9    31    33   ar
    10     3     4   ar
    11     4     5    2
    12     4     6   ar
    13     6     7   ar
    14     7     8   ar
    15     8     9    1
    16     8    10   ar
    17    25    10    1
    18    25    26    1
    19    26    27    1
    20    27    28    1
    21    27    29    1
    22    10    11   ar
    23    11    12    1
    24    11    13   ar
    25    17    18   ar
    26    18    19    1
    27    18    20   ar
    28    20    21   ar
    29    21    22    1
    30    21    15   ar
    31    13     1   ar
    32    13     6   ar
    33    29    25    1
    34    14    23    1
    35    14    24    1
    36    28    30    1
