@<TRIPOS>MOLECULE
*****
 28 30 0 0 0
SMALL
GASTEIGER

@<TRIPOS>ATOM
      1 C          62.8210   89.3673   11.9317 C.ar    1  UNL1        0.0577
      2 C          63.7736   89.5307   13.0787 C.ar    1  UNL1        0.0462
      3 C          64.7382   90.6793   13.0947 C.ar    1  UNL1        0.1602
      4 F          65.6909   90.8428   14.2418 F       1  UNL1       -0.2027
      5 C          64.7502   91.6644   11.9636 C.ar    1  UNL1        0.1534
      6 C          63.7976   91.5010   10.8166 C.ar    1  UNL1        0.0351
      7 C          62.8330   90.3524   10.8006 C.ar    1  UNL1        0.0722
      8 CL         61.8803   90.1889    9.6535 Cl      1  UNL1       -0.0809
      9 S          65.7148   92.8131   11.9796 S.O2    1  UNL1        0.0772
     10 O          66.1519   92.4654   10.5875 O.2     1  UNL1       -0.1498
     11 O          65.2778   93.1608   13.3718 O.2     1  UNL1       -0.1498
     12 N          66.6794   93.9616   11.9956 N.pl3   1  UNL1       -0.1936
     13 H          67.2851   94.0851   12.7618 H       1  UNL1        0.1758
     14 C          66.7211   94.9220   10.8442 C.ar    1  UNL1        0.1786
     15 N          67.7536   94.9501    9.7564 N.ar    1  UNL1       -0.2214
     16 C          67.4083   96.0684    8.8182 C.ar    1  UNL1        0.1079
     17 C          66.1624   96.7316    9.3262 C.ar    1  UNL1        0.0588
     18 S          65.7377   96.0230   10.5783 S.2     1  UNL1       -0.0497
     19 N          61.8564   88.2186   11.9157 N.pl3   1  UNL1       -0.3319
     20 H          60.9493   88.3325   12.2808 H       1  UNL1        0.1468
     21 C          62.2739   86.8965   11.3433 C.3     1  UNL1        0.0874
     22 O          58.5137   86.7775    7.7591 O.2     1  UNL1       -0.2961
     23 C          59.9019   86.4166    8.1979 C.2     1  UNL1        0.1507
     24 C          60.7982   85.6354    7.2835 C.3     1  UNL1        0.0645
     25 C          62.1865   85.2745    7.7223 C.3     1  UNL1        0.0078
     26 C          62.6784   85.6949    9.0755 C.3     1  UNL1        0.0026
     27 C          61.7820   86.4761    9.9900 C.3     1  UNL1        0.0269
     28 C          60.3938   86.8370    9.5511 C.3     1  UNL1        0.0662
@<TRIPOS>BOND
     1    22    23    2
     2    23    24    1
     3    24    25    1
     4    25    26    1
     5    26    27    1
     6    27    21    1
     7    21    19    1
     8    19     1    1
     9     1     2   ar
    10     2     3   ar
    11     3     4    1
    12     3     5   ar
    13     5     9    1
    14     9    10    2
    15     9    11    2
    16     9    12    1
    17    12    14    1
    18    14    15   ar
    19    15    16   ar
    20    16    17   ar
    21    17    18   ar
    22     5     6   ar
    23     6     7   ar
    24     7     8    1
    25    27    28    1
    26    28    23    1
    27     7     1   ar
    28    18    14   ar
    29    19    20    1
    30    12    13    1
@<TRIPOS>MOLECULE
*****
 28 30 0 0 0
SMALL
GASTEIGER

@<TRIPOS>ATOM
      1 C          61.9082   88.4124   11.3301 C.ar    1  UNL1        0.0577
      2 C          62.8922   88.3684   12.4614 C.ar    1  UNL1        0.0462
      3 C          63.7853   89.5443   12.7247 C.ar    1  UNL1        0.1602
      4 F          64.7694   89.5003   13.8560 F       1  UNL1       -0.2027
      5 C          63.6945   90.7643   11.8567 C.ar    1  UNL1        0.1534
      6 C          62.7105   90.8084   10.7255 C.ar    1  UNL1        0.0351
      7 C          61.8174   89.6324   10.4621 C.ar    1  UNL1        0.0722
      8 CL         60.8334   89.6764    9.3308 Cl      1  UNL1       -0.0809
      9 S          64.5877   91.9403   12.1201 S.O2    1  UNL1        0.0772
     10 O          65.0281   91.9269   10.6863 O.2     1  UNL1       -0.1498
     11 O          64.1474   91.9537   13.5539 O.2     1  UNL1       -0.1498
     12 N          65.4809   93.1163   12.3834 N.pl3   1  UNL1       -0.1936
     13 H          65.3759   93.9417   11.8572 H       1  UNL1        0.1758
     14 C          66.5339   93.0345   13.4485 C.ar    1  UNL1        0.1786
     15 N          66.6902   93.9736   14.6078 N.ar    1  UNL1       -0.2214
     16 C          67.8685   93.5189   15.4171 C.ar    1  UNL1        0.1079
     17 C          68.4405   92.2988   14.7580 C.ar    1  UNL1        0.0588
     18 S          67.6156   91.9995   13.5413 S.2     1  UNL1       -0.0497
     19 N          61.0150   87.2364   11.0667 N.pl3   1  UNL1       -0.3319
     20 H          60.1374   87.1762   11.5087 H       1  UNL1        0.1468
     21 C          61.4590   86.1523   10.1300 C.3     1  UNL1        0.0874
     22 O          63.6558   83.4477   13.9848 O.2     1  UNL1       -0.2961
     23 C          63.5327   83.7597   12.5227 C.2     1  UNL1        0.1507
     24 C          64.3850   83.0314   11.5261 C.3     1  UNL1        0.0645
     25 C          64.2619   83.3435   10.0641 C.3     1  UNL1        0.0078
     26 C          63.2866   84.3837    9.5987 C.3     1  UNL1        0.0026
     27 C          62.4344   85.1120   10.5954 C.3     1  UNL1        0.0269
     28 C          62.5575   84.7999   12.0574 C.3     1  UNL1        0.0662
@<TRIPOS>BOND
     1    22    23    2
     2    23    24    1
     3    24    25    1
     4    25    26    1
     5    26    27    1
     6    27    21    1
     7    21    19    1
     8    19     1    1
     9     1     2   ar
    10     2     3   ar
    11     3     4    1
    12     3     5   ar
    13     5     9    1
    14     9    10    2
    15     9    11    2
    16     9    12    1
    17    12    14    1
    18    14    15   ar
    19    15    16   ar
    20    16    17   ar
    21    17    18   ar
    22     5     6   ar
    23     6     7   ar
    24     7     8    1
    25    27    28    1
    26    28    23    1
    27     7     1   ar
    28    18    14   ar
    29    19    20    1
    30    12    13    1
@<TRIPOS>MOLECULE
*****
 28 30 0 0 0
SMALL
GASTEIGER

@<TRIPOS>ATOM
      1 C          65.0099   91.8336   12.5983 C.ar    1  UNL1        0.0577
      2 C          64.3646   91.9295   11.2477 C.ar    1  UNL1        0.0462
      3 C          63.2685   90.9775   10.8709 C.ar    1  UNL1        0.1602
      4 F          62.6231   91.0734    9.5202 F       1  UNL1       -0.2027
      5 C          62.8177   89.9295   11.8448 C.ar    1  UNL1        0.1534
      6 C          63.4630   89.8335   13.1954 C.ar    1  UNL1        0.0351
      7 C          64.5591   90.7856   13.5722 C.ar    1  UNL1        0.0722
      8 CL         65.2045   90.6897   14.9229 Cl      1  UNL1       -0.0809
      9 S          61.7215   88.9774   11.4679 S.O2    1  UNL1        0.0772
     10 O          60.7598   89.7452   12.3256 O.2     1  UNL1       -0.1498
     11 O          62.6831   88.2095   10.6102 O.2     1  UNL1       -0.1498
     12 N          60.6253   88.0254   11.0911 N.pl3   1  UNL1       -0.1936
     13 H          60.2295   87.4356   11.7729 H       1  UNL1        0.1758
     14 C          60.1321   87.9719    9.6755 C.ar    1  UNL1        0.1786
     15 N          59.8801   89.1520    8.7844 N.ar    1  UNL1       -0.2214
     16 C          59.3966   88.6384    7.4606 C.ar    1  UNL1        0.1079
     17 C          59.3497   87.1408    7.5335 C.ar    1  UNL1        0.0588
     18 S          59.8043   86.7289    8.9024 S.2     1  UNL1       -0.0497
     19 N          66.1061   92.7857   12.9752 N.pl3   1  UNL1       -0.3319
     20 H          66.7914   92.5140   13.6278 H       1  UNL1        0.1468
     21 C          66.1583   94.1517   12.3577 C.3     1  UNL1        0.0874
     22 O          68.7009   92.2538    8.2427 O.2     1  UNL1       -0.2961
     23 C          67.9637   93.3772    8.9094 C.2     1  UNL1        0.1507
     24 C          67.7607   94.6751    8.1854 C.3     1  UNL1        0.0645
     25 C          67.0235   95.7985    8.8521 C.3     1  UNL1        0.0078
     26 C          66.4894   95.6240   10.2428 C.3     1  UNL1        0.0026
     27 C          66.6925   94.3262   10.9669 C.3     1  UNL1        0.0269
     28 C          67.4296   93.2028   10.3001 C.3     1  UNL1        0.0662
@<TRIPOS>BOND
     1    22    23    2
     2    23    24    1
     3    24    25    1
     4    25    26    1
     5    26    27    1
     6    27    21    1
     7    21    19    1
     8    19     1    1
     9     1     2   ar
    10     2     3   ar
    11     3     4    1
    12     3     5   ar
    13     5     9    1
    14     9    10    2
    15     9    11    2
    16     9    12    1
    17    12    14    1
    18    14    15   ar
    19    15    16   ar
    20    16    17   ar
    21    17    18   ar
    22     5     6   ar
    23     6     7   ar
    24     7     8    1
    25    27    28    1
    26    28    23    1
    27     7     1   ar
    28    18    14   ar
    29    19    20    1
    30    12    13    1
@<TRIPOS>MOLECULE
*****
 28 30 0 0 0
SMALL
GASTEIGER

@<TRIPOS>ATOM
      1 C          62.1025   88.4490   11.4880 C.ar    1  UNL1        0.0577
      2 C          63.1036   88.5670   12.5987 C.ar    1  UNL1        0.0462
      3 C          63.9434   89.8036   12.7232 C.ar    1  UNL1        0.1602
      4 F          64.9446   89.9216   13.8340 F       1  UNL1       -0.2027
      5 C          63.7820   90.9222   11.7370 C.ar    1  UNL1        0.1534
      6 C          62.7809   90.8042   10.6263 C.ar    1  UNL1        0.0351
      7 C          61.9411   89.5676   10.5018 C.ar    1  UNL1        0.0722
      8 CL         60.9398   89.4496    9.3911 Cl      1  UNL1       -0.0809
      9 S          64.6219   92.1589   11.8615 S.O2    1  UNL1        0.0772
     10 O          64.7614   92.2144   10.3691 O.2     1  UNL1       -0.1498
     11 O          64.4823   92.1034   13.3539 O.2     1  UNL1       -0.1498
     12 N          65.4617   93.3955   11.9860 N.pl3   1  UNL1       -0.1936
     13 H          65.3443   93.9945   12.7584 H       1  UNL1        0.1758
     14 C          66.4802   93.7193   10.9336 C.ar    1  UNL1        0.1786
     15 N          67.6048   92.8303   10.4917 N.ar    1  UNL1       -0.2214
     16 C          68.3727   93.5506    9.4233 C.ar    1  UNL1        0.1079
     17 C          67.7228   94.8848    9.2048 C.ar    1  UNL1        0.0588
     18 S          66.5532   94.9891   10.1383 S.2     1  UNL1       -0.0497
     19 N          61.2626   87.2124   11.3635 N.pl3   1  UNL1       -0.3319
     20 H          60.4605   87.1036   11.9239 H       1  UNL1        0.1468
     21 C          61.6449   86.1415   10.3852 C.3     1  UNL1        0.0874
     22 O          63.9559   83.3810   14.1320 O.2     1  UNL1       -0.2961
     23 C          63.7323   83.6623   12.6757 C.2     1  UNL1        0.1507
     24 C          64.4404   82.8447   11.6365 C.3     1  UNL1        0.0645
     25 C          64.2168   83.1260   10.1802 C.3     1  UNL1        0.0078
     26 C          63.2850   84.2249    9.7631 C.3     1  UNL1        0.0026
     27 C          62.5768   85.0425   10.8023 C.3     1  UNL1        0.0269
     28 C          62.8004   84.7612   12.2586 C.3     1  UNL1        0.0662
@<TRIPOS>BOND
     1    22    23    2
     2    23    24    1
     3    24    25    1
     4    25    26    1
     5    26    27    1
     6    27    21    1
     7    21    19    1
     8    19     1    1
     9     1     2   ar
    10     2     3   ar
    11     3     4    1
    12     3     5   ar
    13     5     9    1
    14     9    10    2
    15     9    11    2
    16     9    12    1
    17    12    14    1
    18    14    15   ar
    19    15    16   ar
    20    16    17   ar
    21    17    18   ar
    22     5     6   ar
    23     6     7   ar
    24     7     8    1
    25    27    28    1
    26    28    23    1
    27     7     1   ar
    28    18    14   ar
    29    19    20    1
    30    12    13    1
@<TRIPOS>MOLECULE
*****
 28 30 0 0 0
SMALL
GASTEIGER

@<TRIPOS>ATOM
      1 C          62.9327   89.2679   12.0327 C.ar    1  UNL1        0.0577
      2 C          62.8474   90.2433   10.8964 C.ar    1  UNL1        0.0462
      3 C          63.7499   91.4411   10.8670 C.ar    1  UNL1        0.1602
      4 F          63.6647   92.4167    9.7307 F       1  UNL1       -0.2027
      5 C          64.7375   91.6634   11.9739 C.ar    1  UNL1        0.1534
      6 C          64.8228   90.6879   13.1101 C.ar    1  UNL1        0.0351
      7 C          63.9203   89.4902   13.1395 C.ar    1  UNL1        0.0722
      8 CL         64.0055   88.5146   14.2759 Cl      1  UNL1       -0.0809
      9 S          65.6400   92.8612   11.9444 S.O2    1  UNL1        0.0772
     10 O          65.3161   93.1406   13.3821 O.2     1  UNL1       -0.1498
     11 O          65.9639   92.5819   10.5067 O.2     1  UNL1       -0.1498
     12 N          66.5424   94.0590   11.9150 N.pl3   1  UNL1       -0.1936
     13 H          67.1804   94.2129   12.6489 H       1  UNL1        0.1758
     14 C          66.4728   95.0225   10.7675 C.ar    1  UNL1        0.1786
     15 N          65.3989   96.0444   10.5380 N.ar    1  UNL1       -0.2214
     16 C          65.7272   96.7867    9.2766 C.ar    1  UNL1        0.1079
     17 C          67.0040   96.2235    8.7263 C.ar    1  UNL1        0.0588
     18 S          67.4648   95.1332    9.6478 S.2     1  UNL1       -0.0497
     19 N          62.0302   88.0700   12.0622 N.pl3   1  UNL1       -0.3319
     20 H          61.1601   88.1204   12.5200 H       1  UNL1        0.1468
     21 C          62.4534   86.7955   11.3940 C.3     1  UNL1        0.0874
     22 O          58.5406   86.8844    7.9761 O.2     1  UNL1       -0.2961
     23 C          59.9363   86.4748    8.3426 C.2     1  UNL1        0.1507
     24 C          60.7713   85.7002    7.3665 C.3     1  UNL1        0.0645
     25 C          62.1670   85.2907    7.7330 C.3     1  UNL1        0.0078
     26 C          62.7278   85.6558    9.0754 C.3     1  UNL1        0.0026
     27 C          61.8927   86.4304   10.0515 C.3     1  UNL1        0.0269
     28 C          60.4970   86.8399    9.6850 C.3     1  UNL1        0.0662
@<TRIPOS>BOND
     1    22    23    2
     2    23    24    1
     3    24    25    1
     4    25    26    1
     5    26    27    1
     6    27    21    1
     7    21    19    1
     8    19     1    1
     9     1     2   ar
    10     2     3   ar
    11     3     4    1
    12     3     5   ar
    13     5     9    1
    14     9    10    2
    15     9    11    2
    16     9    12    1
    17    12    14    1
    18    14    15   ar
    19    15    16   ar
    20    16    17   ar
    21    17    18   ar
    22     5     6   ar
    23     6     7   ar
    24     7     8    1
    25    27    28    1
    26    28    23    1
    27     7     1   ar
    28    18    14   ar
    29    19    20    1
    30    12    13    1
@<TRIPOS>MOLECULE
*****
 28 30 0 0 0
SMALL
GASTEIGER

@<TRIPOS>ATOM
      1 C          63.4843   89.4078   14.2552 C.ar    1  UNL1        0.0577
      2 C          63.5313   88.4562   13.0967 C.ar    1  UNL1        0.0462
      3 C          63.6555   86.9816   13.3420 C.ar    1  UNL1        0.1602
      4 F          63.7026   86.0299   12.1834 F       1  UNL1       -0.2027
      5 C          63.7328   86.4587   14.7457 C.ar    1  UNL1        0.1534
      6 C          63.6858   87.4103   15.9042 C.ar    1  UNL1        0.0351
      7 C          63.5615   88.8849   15.6589 C.ar    1  UNL1        0.0722
      8 CL         63.5145   89.8366   16.8175 Cl      1  UNL1       -0.0809
      9 S          63.8571   84.9841   14.9910 S.O2    1  UNL1        0.0772
     10 O          62.3821   84.9031   15.2514 O.2     1  UNL1       -0.1498
     11 O          65.3321   85.0650   14.7306 O.2     1  UNL1       -0.1498
     12 N          63.9813   83.5095   15.2362 N.pl3   1  UNL1       -0.1936
     13 H          64.4365   83.1817   16.0453 H       1  UNL1        0.1758
     14 C          63.4119   82.5345   14.2488 C.ar    1  UNL1        0.1786
     15 N          62.4161   81.4540   14.5506 N.ar    1  UNL1       -0.2214
     16 C          62.1271   80.7204   13.2746 C.ar    1  UNL1        0.1079
     17 C          62.9443   81.3474   12.1841 C.ar    1  UNL1        0.0588
     18 S          63.7383   82.4686   12.7862 S.2     1  UNL1       -0.0497
     19 N          63.3600   90.8825   14.0099 N.pl3   1  UNL1       -0.3319
     20 H          62.5426   91.3594   14.2812 H       1  UNL1        0.1468
     21 C          64.4811   91.6303   13.3514 C.3     1  UNL1        0.0874
     22 O          69.6554   92.0597   13.5582 O.2     1  UNL1       -0.2961
     23 C          68.3160   92.1581   14.2263 C.2     1  UNL1        0.1507
     24 C          68.2243   92.5697   15.6658 C.3     1  UNL1        0.0645
     25 C          66.8849   92.6682   16.3338 C.3     1  UNL1        0.0078
     26 C          65.6372   92.3551   15.5624 C.3     1  UNL1        0.0026
     27 C          65.7289   91.9435   14.1229 C.3     1  UNL1        0.0269
     28 C          67.0683   91.8450   13.4549 C.3     1  UNL1        0.0662
@<TRIPOS>BOND
     1    22    23    2
     2    23    24    1
     3    24    25    1
     4    25    26    1
     5    26    27    1
     6    27    21    1
     7    21    19    1
     8    19     1    1
     9     1     2   ar
    10     2     3   ar
    11     3     4    1
    12     3     5   ar
    13     5     9    1
    14     9    10    2
    15     9    11    2
    16     9    12    1
    17    12    14    1
    18    14    15   ar
    19    15    16   ar
    20    16    17   ar
    21    17    18   ar
    22     5     6   ar
    23     6     7   ar
    24     7     8    1
    25    27    28    1
    26    28    23    1
    27     7     1   ar
    28    18    14   ar
    29    19    20    1
    30    12    13    1
@<TRIPOS>MOLECULE
*****
 28 30 0 0 0
SMALL
GASTEIGER

@<TRIPOS>ATOM
      1 C          63.8682   87.8025   15.4810 C.ar    1  UNL1        0.0577
      2 C          64.1984   87.0814   14.2079 C.ar    1  UNL1        0.0462
      3 C          63.9039   85.6163   14.0778 C.ar    1  UNL1        0.1602
      4 F          64.2341   84.8952   12.8046 F       1  UNL1       -0.2027
      5 C          63.2793   84.8724   15.2208 C.ar    1  UNL1        0.1534
      6 C          62.9492   85.5936   16.4939 C.ar    1  UNL1        0.0351
      7 C          63.2436   87.0586   16.6240 C.ar    1  UNL1        0.0722
      8 CL         62.9134   87.7798   17.8972 Cl      1  UNL1       -0.0809
      9 S          62.9849   83.4073   15.0906 S.O2    1  UNL1        0.0772
     10 O          64.4155   83.0913   15.4121 O.2     1  UNL1       -0.1498
     11 O          61.5543   83.7234   14.7691 O.2     1  UNL1       -0.1498
     12 N          62.6905   81.9423   14.9604 N.pl3   1  UNL1       -0.1936
     13 H          62.4673   81.4122   15.7594 H       1  UNL1        0.1758
     14 C          62.7362   81.2850   13.6129 C.ar    1  UNL1        0.1786
     15 N          62.4111   79.8501   13.3203 N.ar    1  UNL1       -0.2214
     16 C          62.5890   79.6254   11.8479 C.ar    1  UNL1        0.1079
     17 C          63.0241   80.9214   11.2305 C.ar    1  UNL1        0.0588
     18 S          63.1151   81.9471   12.3213 S.2     1  UNL1       -0.0497
     19 N          64.1626   89.2676   15.6112 N.pl3   1  UNL1       -0.3319
     20 H          64.6859   89.5984   16.3767 H       1  UNL1        0.1468
     21 C          63.6598   90.2286   14.5751 C.3     1  UNL1        0.0874
     22 O          68.3452   92.3946   13.9790 O.2     1  UNL1       -0.2961
     23 C          66.9750   92.0959   13.4469 C.2     1  UNL1        0.1507
     24 C          66.5771   92.5816   12.0846 C.3     1  UNL1        0.0645
     25 C          65.2069   92.2829   11.5525 C.3     1  UNL1        0.0078
     26 C          64.2344   91.4986   12.3826 C.3     1  UNL1        0.0026
     27 C          64.6323   91.0129   13.7449 C.3     1  UNL1        0.0269
     28 C          66.0025   91.3116   14.2770 C.3     1  UNL1        0.0662
@<TRIPOS>BOND
     1    22    23    2
     2    23    24    1
     3    24    25    1
     4    25    26    1
     5    26    27    1
     6    27    21    1
     7    21    19    1
     8    19     1    1
     9     1     2   ar
    10     2     3   ar
    11     3     4    1
    12     3     5   ar
    13     5     9    1
    14     9    10    2
    15     9    11    2
    16     9    12    1
    17    12    14    1
    18    14    15   ar
    19    15    16   ar
    20    16    17   ar
    21    17    18   ar
    22     5     6   ar
    23     6     7   ar
    24     7     8    1
    25    27    28    1
    26    28    23    1
    27     7     1   ar
    28    18    14   ar
    29    19    20    1
    30    12    13    1
@<TRIPOS>MOLECULE
*****
 28 30 0 0 0
SMALL
GASTEIGER

@<TRIPOS>ATOM
      1 C          64.4221   91.2588   12.6925 C.ar    1  UNL1        0.0577
      2 C          63.8025   91.3539   11.3298 C.ar    1  UNL1        0.0462
      3 C          62.9414   90.2376   10.8179 C.ar    1  UNL1        0.1602
      4 F          62.3217   90.3327    9.4551 F       1  UNL1       -0.2027
      5 C          62.6998   89.0261   11.6686 C.ar    1  UNL1        0.1534
      6 C          63.3194   88.9309   13.0313 C.ar    1  UNL1        0.0351
      7 C          64.1805   90.0473   13.5433 C.ar    1  UNL1        0.0722
      8 CL         64.8002   89.9521   14.9060 Cl      1  UNL1       -0.0809
      9 S          61.8386   87.9096   11.1567 S.O2    1  UNL1        0.0772
     10 O          62.7003   86.9149   11.8764 O.2     1  UNL1       -0.1498
     11 O          60.9769   88.9043   10.4370 O.2     1  UNL1       -0.1498
     12 N          60.9775   86.7933   10.6447 N.pl3   1  UNL1       -0.1936
     13 H          60.2189   86.4702   11.1828 H       1  UNL1        0.1758
     14 C          61.2721   86.1691    9.3130 C.ar    1  UNL1        0.1786
     15 N          60.2959   85.9890    8.1883 N.ar    1  UNL1       -0.2214
     16 C          61.0151   85.3240    7.0523 C.ar    1  UNL1        0.1079
     17 C          62.4357   85.0930    7.4748 C.ar    1  UNL1        0.0588
     18 S          62.5945   85.6153    8.8720 S.2     1  UNL1       -0.0497
     19 N          65.2833   92.3752   13.2045 N.pl3   1  UNL1       -0.3319
     20 H          64.9085   93.0410   13.8252 H       1  UNL1        0.1468
     21 C          66.7155   92.4771   12.7706 C.3     1  UNL1        0.0874
     22 O          68.9856   92.0936    8.1123 O.2     1  UNL1       -0.2961
     23 C          68.1897   92.8837    9.1084 C.2     1  UNL1        0.1507
     24 C          67.7329   94.2722    8.7715 C.3     1  UNL1        0.0645
     25 C          66.9369   95.0622    9.7676 C.3     1  UNL1        0.0078
     26 C          66.5978   94.4639   11.1006 C.3     1  UNL1        0.0026
     27 C          67.0546   93.0755   11.4375 C.3     1  UNL1        0.0269
     28 C          67.8506   92.2854   10.4414 C.3     1  UNL1        0.0662
@<TRIPOS>BOND
     1    22    23    2
     2    23    24    1
     3    24    25    1
     4    25    26    1
     5    26    27    1
     6    27    21    1
     7    21    19    1
     8    19     1    1
     9     1     2   ar
    10     2     3   ar
    11     3     4    1
    12     3     5   ar
    13     5     9    1
    14     9    10    2
    15     9    11    2
    16     9    12    1
    17    12    14    1
    18    14    15   ar
    19    15    16   ar
    20    16    17   ar
    21    17    18   ar
    22     5     6   ar
    23     6     7   ar
    24     7     8    1
    25    27    28    1
    26    28    23    1
    27     7     1   ar
    28    18    14   ar
    29    19    20    1
    30    12    13    1
@<TRIPOS>MOLECULE
*****
 28 30 0 0 0
SMALL
GASTEIGER

@<TRIPOS>ATOM
      1 C          63.7982   88.6109   15.1938 C.ar    1  UNL1        0.0577
      2 C          64.0371   87.8141   13.9456 C.ar    1  UNL1        0.0462
      3 C          63.8505   86.3259   13.9586 C.ar    1  UNL1        0.1602
      4 F          64.0893   85.5290   12.7104 F       1  UNL1       -0.2027
      5 C          63.4250   85.6343   15.2199 C.ar    1  UNL1        0.1534
      6 C          63.1861   86.4311   16.4681 C.ar    1  UNL1        0.0351
      7 C          63.3727   87.9193   16.4551 C.ar    1  UNL1        0.0722
      8 CL         63.1339   88.7162   17.7033 Cl      1  UNL1       -0.0809
      9 S          63.2384   84.1460   15.2329 S.O2    1  UNL1        0.0772
     10 O          61.7502   84.3324   15.2127 O.2     1  UNL1       -0.1498
     11 O          64.7266   83.9595   15.2530 O.2     1  UNL1       -0.1498
     12 N          63.0518   82.6577   15.2459 N.pl3   1  UNL1       -0.1936
     13 H          62.9973   82.1759   16.1027 H       1  UNL1        0.1758
     14 C          62.9481   81.9036   13.9534 C.ar    1  UNL1        0.1786
     15 N          63.2668   82.4423   12.5902 N.ar    1  UNL1       -0.2214
     16 C          63.0232   81.3500   11.5915 C.ar    1  UNL1        0.1079
     17 C          62.5539   80.1361   12.3373 C.ar    1  UNL1        0.0588
     18 S          62.5075   80.4783   13.7972 S.2     1  UNL1       -0.0497
     19 N          63.9848   90.0992   15.1808 N.pl3   1  UNL1       -0.3319
     20 H          63.2688   90.6880   15.5124 H       1  UNL1        0.1468
     21 C          65.2622   90.6904   14.6626 C.3     1  UNL1        0.0874
     22 O          63.1161   91.5600   10.0109 O.2     1  UNL1       -0.2961
     23 C          64.2103   91.8147   11.0048 C.2     1  UNL1        0.1507
     24 C          65.3257   92.7589   10.6667 C.3     1  UNL1        0.0645
     25 C          66.4200   93.0136   11.6605 C.3     1  UNL1        0.0078
     26 C          66.3988   92.3241   12.9925 C.3     1  UNL1        0.0026
     27 C          65.2834   91.3799   13.3306 C.3     1  UNL1        0.0269
     28 C          64.1892   91.1252   12.3367 C.3     1  UNL1        0.0662
@<TRIPOS>BOND
     1    22    23    2
     2    23    24    1
     3    24    25    1
     4    25    26    1
     5    26    27    1
     6    27    21    1
     7    21    19    1
     8    19     1    1
     9     1     2   ar
    10     2     3   ar
    11     3     4    1
    12     3     5   ar
    13     5     9    1
    14     9    10    2
    15     9    11    2
    16     9    12    1
    17    12    14    1
    18    14    15   ar
    19    15    16   ar
    20    16    17   ar
    21    17    18   ar
    22     5     6   ar
    23     6     7   ar
    24     7     8    1
    25    27    28    1
    26    28    23    1
    27     7     1   ar
    28    18    14   ar
    29    19    20    1
    30    12    13    1
