@<TRIPOS>MOLECULE
*****
 37 40 0 0 0
SMALL
GASTEIGER

@<TRIPOS>ATOM
      1 C          64.0864   90.4279   13.1731 C.ar    1  UNL1        0.2207
      2 N          63.2051   90.1082   12.0022 N.ar    1  UNL1       -0.2120
      3 C          62.8144   88.6870   11.7236 C.ar    1  UNL1        0.1033
      4 C          63.3050   87.5856   12.6160 C.ar    1  UNL1        0.0370
      5 C          62.9143   86.1644   12.3373 C.ar    1  UNL1        0.0031
      6 C          63.4048   85.0630   13.2297 C.ar    1  UNL1        0.0020
      7 C          64.2862   85.3828   14.4006 C.ar    1  UNL1        0.0016
      8 C          64.6769   86.8040   14.6792 C.ar    1  UNL1        0.0192
      9 C          64.1863   87.9054   13.7868 C.ar    1  UNL1        0.0857
     10 N          64.5770   89.3265   14.0654 N.ar    1  UNL1       -0.2135
     11 C          63.0141   83.6419   12.9511 C.ar    1  UNL1        0.0271
     12 C          63.4555   82.9780   11.6805 C.ar    1  UNL1        0.0925
     13 CL         64.2877   83.7353   10.6885 Cl      1  UNL1       -0.0791
     14 C          63.0648   81.5568   11.4019 C.ar    1  UNL1        0.1522
     15 C          62.2327   80.7995   12.3939 C.ar    1  UNL1        0.0755
     16 C          61.7913   81.4634   13.6645 C.ar    1  UNL1        0.1522
     17 C          62.1820   82.8846   13.9431 C.ar    1  UNL1        0.0925
     18 CL         61.7406   83.5484   15.2137 Cl      1  UNL1       -0.0791
     19 O          63.5062   80.8930   10.1313 O.3     1  UNL1       -0.4705
     20 C          62.9141   79.5748    9.7289 C.3     1  UNL1        0.2525
     21 O          60.9592   80.7061   14.6565 O.3     1  UNL1       -0.4705
     22 C          59.5664   80.2806   14.2974 C.3     1  UNL1        0.2525
     23 N          64.4772   91.8491   13.4517 N.pl3   1  UNL1       -0.2818
     24 H          63.9219   92.5879   13.1124 H       1  UNL1        0.1551
     25 C          67.0251   92.3483   13.5475 C.ar    1  UNL1        0.0639
     26 C          68.2619   92.6438   14.3430 C.ar    1  UNL1        0.0159
     27 C          68.1876   92.7359   15.8384 C.ar    1  UNL1        0.0010
     28 C          66.8766   92.5324   16.5381 C.ar    1  UNL1       -0.0030
     29 C          65.6397   92.2368   15.7426 C.ar    1  UNL1       -0.0072
     30 C          64.3287   92.0333   16.4424 C.3     1  UNL1        0.0324
     31 C          65.7140   92.1447   14.2473 C.ar    1  UNL1        0.0601
     32 C          66.8685   93.4779   11.2131 C.2     1  UNL1        0.2497
     33 O          66.5634   94.7917   11.8694 O.2     1  UNL1       -0.2698
     34 N          67.0994   92.2562   12.0522 N.am    1  UNL1       -0.2794
     35 H          67.2996   91.3938   11.6214 H       1  UNL1        0.1552
     36 C          68.2269   92.9858    9.0539 C.2     1  UNL1        0.0048
     37 C          66.9427   93.3858    9.7178 C.2     1  UNL1        0.0580
@<TRIPOS>BOND
     1    36    37    2
     2    37    32    1
     3    32    33    2
     4    32    34   am
     5    34    25    1
     6    25    26   ar
     7    26    27   ar
     8    27    28   ar
     9    28    29   ar
    10    29    30    1
    11    29    31   ar
    12    31    23    1
    13    23     1    1
    14     1     2   ar
    15     2     3   ar
    16     3     4   ar
    17     4     5   ar
    18     5     6   ar
    19     6    11    1
    20    11    12   ar
    21    12    13    1
    22    12    14   ar
    23    14    19    1
    24    19    20    1
    25    14    15   ar
    26    15    16   ar
    27    16    21    1
    28    21    22    1
    29    16    17   ar
    30    17    18    1
    31     6     7   ar
    32     7     8   ar
    33     8     9   ar
    34     9    10   ar
    35    31    25   ar
    36    10     1   ar
    37     9     4   ar
    38    17    11   ar
    39    34    35    1
    40    23    24    1
@<TRIPOS>MOLECULE
*****
 37 40 0 0 0
SMALL
GASTEIGER

@<TRIPOS>ATOM
      1 C          64.1034   90.4337   13.2050 C.ar    1  UNL1        0.2207
      2 N          63.2391   90.1176   12.0206 N.ar    1  UNL1       -0.2120
      3 C          62.8485   88.6978   11.7348 C.ar    1  UNL1        0.1033
      4 C          63.3222   87.5942   12.6335 C.ar    1  UNL1        0.0370
      5 C          62.9315   86.1744   12.3476 C.ar    1  UNL1        0.0031
      6 C          63.4052   85.0708   13.2463 C.ar    1  UNL1        0.0020
      7 C          64.2696   85.3870   14.4308 C.ar    1  UNL1        0.0016
      8 C          64.6602   86.8067   14.7166 C.ar    1  UNL1        0.0192
      9 C          64.1865   87.9103   13.8179 C.ar    1  UNL1        0.0857
     10 N          64.5771   89.3301   14.1037 N.ar    1  UNL1       -0.2135
     11 C          63.0146   83.6510   12.9605 C.ar    1  UNL1        0.0271
     12 C          62.1809   82.8893   13.9478 C.ar    1  UNL1        0.0925
     13 CL         61.7379   83.5473   15.2209 Cl      1  UNL1       -0.0791
     14 C          61.7903   81.4695   13.6620 C.ar    1  UNL1        0.1522
     15 C          62.2334   80.8115   12.3889 C.ar    1  UNL1        0.0755
     16 C          63.0671   81.5732   11.4017 C.ar    1  UNL1        0.1522
     17 C          63.4577   82.9930   11.6874 C.ar    1  UNL1        0.0925
     18 CL         64.2914   83.7547   10.7002 Cl      1  UNL1       -0.0791
     19 O          60.9567   80.7078   14.6493 O.3     1  UNL1       -0.4705
     20 C          59.5671   80.2772   14.2833 C.3     1  UNL1        0.2525
     21 O          63.5101   80.9152   10.1286 O.3     1  UNL1       -0.4705
     22 C          62.9331   79.5894    9.7293 C.3     1  UNL1        0.2525
     23 N          64.4940   91.8535   13.4909 N.pl3   1  UNL1       -0.2818
     24 H          63.9298   92.5935   13.1696 H       1  UNL1        0.1551
     25 C          67.0483   92.3255   13.5468 C.ar    1  UNL1        0.0639
     26 C          68.2986   92.6177   14.3222 C.ar    1  UNL1        0.0159
     27 C          68.2451   92.7303   15.8170 C.ar    1  UNL1        0.0010
     28 C          66.9412   92.5506   16.5364 C.ar    1  UNL1       -0.0030
     29 C          65.6908   92.2583   15.7611 C.ar    1  UNL1       -0.0072
     30 C          64.3870   92.0787   16.4805 C.3     1  UNL1        0.0324
     31 C          65.7444   92.1458   14.2663 C.ar    1  UNL1        0.0601
     32 C          66.8734   93.4259   11.1999 C.2     1  UNL1        0.2497
     33 O          66.5915   94.7516   11.8425 O.2     1  UNL1       -0.2698
     34 N          67.1019   92.2129   12.0520 N.am    1  UNL1       -0.2794
     35 H          67.2869   91.3428   11.6302 H       1  UNL1        0.1552
     36 C          68.2283   93.0143    9.0216 C.2     1  UNL1        0.0048
     37 C          66.9270   93.3134    9.7051 C.2     1  UNL1        0.0580
@<TRIPOS>BOND
     1    36    37    2
     2    37    32    1
     3    32    33    2
     4    32    34   am
     5    34    25    1
     6    25    26   ar
     7    26    27   ar
     8    27    28   ar
     9    28    29   ar
    10    29    30    1
    11    29    31   ar
    12    31    23    1
    13    23     1    1
    14     1     2   ar
    15     2     3   ar
    16     3     4   ar
    17     4     5   ar
    18     5     6   ar
    19     6    11    1
    20    11    12   ar
    21    12    13    1
    22    12    14   ar
    23    14    19    1
    24    19    20    1
    25    14    15   ar
    26    15    16   ar
    27    16    21    1
    28    21    22    1
    29    16    17   ar
    30    17    18    1
    31     6     7   ar
    32     7     8   ar
    33     8     9   ar
    34     9    10   ar
    35    31    25   ar
    36    10     1   ar
    37     9     4   ar
    38    17    11   ar
    39    34    35    1
    40    23    24    1
@<TRIPOS>MOLECULE
*****
 37 40 0 0 0
SMALL
GASTEIGER

@<TRIPOS>ATOM
      1 C          63.2440   89.7810   12.3626 C.ar    1  UNL1        0.2207
      2 N          62.3594   89.3242   11.2406 N.ar    1  UNL1       -0.2120
      3 C          62.1009   87.8607   11.0376 C.ar    1  UNL1        0.1033
      4 C          62.7269   86.8540   11.9566 C.ar    1  UNL1        0.0370
      5 C          62.4684   85.3904   11.7535 C.ar    1  UNL1        0.0031
      6 C          63.0944   84.3836   12.6724 C.ar    1  UNL1        0.0020
      7 C          63.9791   84.8404   13.7945 C.ar    1  UNL1        0.0016
      8 C          64.2376   86.3039   13.9975 C.ar    1  UNL1        0.0192
      9 C          63.6115   87.3107   13.0785 C.ar    1  UNL1        0.0857
     10 N          63.8700   88.7742   13.2816 N.ar    1  UNL1       -0.2135
     11 C          62.8359   82.9201   12.4694 C.ar    1  UNL1        0.0271
     12 C          62.1060   82.1348   13.5185 C.ar    1  UNL1        0.0925
     13 CL         61.6347   82.8130   14.7706 Cl      1  UNL1       -0.0791
     14 C          61.8475   80.6713   13.3155 C.ar    1  UNL1        0.1522
     15 C          62.3188   79.9930   12.0634 C.ar    1  UNL1        0.0755
     16 C          63.0487   80.7783   11.0143 C.ar    1  UNL1        0.1522
     17 C          63.3073   82.2418   11.2173 C.ar    1  UNL1        0.0925
     18 CL         64.0371   83.0271   10.1682 Cl      1  UNL1       -0.0791
     19 O          61.1176   79.8860   14.3646 O.3     1  UNL1       -0.4705
     20 C          59.6179   79.8883   14.3952 C.3     1  UNL1        0.2525
     21 O          63.5201   80.1000    9.7622 O.3     1  UNL1       -0.4705
     22 C          62.9773   78.7522    9.3895 C.3     1  UNL1        0.2525
     23 N          63.5026   91.2446   12.5657 N.pl3   1  UNL1       -0.2818
     24 H          62.7822   91.8977   12.4115 H       1  UNL1        0.1551
     25 C          65.4450   91.2134   14.2908 C.ar    1  UNL1        0.0639
     26 C          66.8010   91.6817   14.7288 C.ar    1  UNL1        0.0159
     27 C          67.5706   92.6496   13.8797 C.ar    1  UNL1        0.0010
     28 C          66.9842   93.1492   12.5927 C.ar    1  UNL1       -0.0030
     29 C          65.6281   92.6808   12.1546 C.ar    1  UNL1       -0.0072
     30 C          65.0417   93.1804   10.8676 C.3     1  UNL1        0.0324
     31 C          64.8585   91.7129   13.0037 C.ar    1  UNL1        0.0601
     32 C          63.7721   90.7529   16.2245 C.2     1  UNL1        0.2497
     33 O          63.6384   92.2282   16.4601 O.2     1  UNL1       -0.2698
     34 N          64.6754   90.2455   15.1399 N.am    1  UNL1       -0.2794
     35 H          64.7632   89.2772   14.9852 H       1  UNL1        0.1552
     36 C          63.0718   88.3146   16.7852 C.2     1  UNL1        0.0048
     37 C          63.0025   89.7850   17.0736 C.2     1  UNL1        0.0580
@<TRIPOS>BOND
     1    36    37    2
     2    37    32    1
     3    32    33    2
     4    32    34   am
     5    34    25    1
     6    25    26   ar
     7    26    27   ar
     8    27    28   ar
     9    28    29   ar
    10    29    30    1
    11    29    31   ar
    12    31    23    1
    13    23     1    1
    14     1     2   ar
    15     2     3   ar
    16     3     4   ar
    17     4     5   ar
    18     5     6   ar
    19     6    11    1
    20    11    12   ar
    21    12    13    1
    22    12    14   ar
    23    14    19    1
    24    19    20    1
    25    14    15   ar
    26    15    16   ar
    27    16    21    1
    28    21    22    1
    29    16    17   ar
    30    17    18    1
    31     6     7   ar
    32     7     8   ar
    33     8     9   ar
    34     9    10   ar
    35    31    25   ar
    36    10     1   ar
    37     9     4   ar
    38    17    11   ar
    39    34    35    1
    40    23    24    1
@<TRIPOS>MOLECULE
*****
 37 40 0 0 0
SMALL
GASTEIGER

@<TRIPOS>ATOM
      1 C          64.0413   89.9780   13.5453 C.ar    1  UNL1        0.2207
      2 N          64.6426   89.1478   14.6404 N.ar    1  UNL1       -0.2120
      3 C          64.5020   87.6547   14.6130 C.ar    1  UNL1        0.1033
      4 C          63.7601   86.9917   13.4904 C.ar    1  UNL1        0.0370
      5 C          63.6195   85.4985   13.4630 C.ar    1  UNL1        0.0031
      6 C          62.8776   84.8356   12.3405 C.ar    1  UNL1        0.0020
      7 C          62.2763   85.6658   11.2454 C.ar    1  UNL1        0.0016
      8 C          62.4169   87.1589   11.2728 C.ar    1  UNL1        0.0192
      9 C          63.1588   87.8219   12.3954 C.ar    1  UNL1        0.0857
     10 N          63.2994   89.3150   12.4228 N.ar    1  UNL1       -0.2135
     11 C          62.7370   83.3425   12.3131 C.ar    1  UNL1        0.0271
     12 C          63.2762   82.5595   11.1527 C.ar    1  UNL1        0.0925
     13 CL         63.9560   83.2698   10.0199 Cl      1  UNL1       -0.0791
     14 C          63.1356   81.0664   11.1253 C.ar    1  UNL1        0.1522
     15 C          62.4558   80.3562   12.2581 C.ar    1  UNL1        0.0755
     16 C          61.9166   81.1390   13.4185 C.ar    1  UNL1        0.1522
     17 C          62.0572   82.6322   13.4459 C.ar    1  UNL1        0.0925
     18 CL         61.5180   83.4151   14.6062 Cl      1  UNL1       -0.0791
     19 O          63.6748   80.2836    9.9650 O.3     1  UNL1       -0.4705
     20 C          62.8647   79.1699    9.3703 C.3     1  UNL1        0.2525
     21 O          61.2368   80.4287   14.5513 O.3     1  UNL1       -0.4705
     22 C          59.7818   80.0779   14.4513 C.3     1  UNL1        0.2525
     23 N          64.1819   91.4712   13.5727 N.pl3   1  UNL1       -0.2818
     24 H          63.8169   91.9862   14.3282 H       1  UNL1        0.1551
     25 C          66.1117   92.9888   12.7226 C.ar    1  UNL1        0.0639
     26 C          66.8084   93.6972   11.5990 C.ar    1  UNL1        0.0159
     27 C          66.2721   93.5966   10.2017 C.ar    1  UNL1        0.0010
     28 C          65.0390   92.7875    9.9282 C.ar    1  UNL1       -0.0030
     29 C          64.3423   92.0790   11.0519 C.ar    1  UNL1       -0.0072
     30 C          63.1092   91.2698   10.7783 C.3     1  UNL1        0.0324
     31 C          64.8786   92.1796   12.4491 C.ar    1  UNL1        0.0601
     32 C          68.0159   92.5623   14.4379 C.2     1  UNL1        0.2497
     33 O          68.8473   91.9345   13.3588 O.2     1  UNL1       -0.2698
     34 N          66.6481   93.0894   14.1198 N.am    1  UNL1       -0.2794
     35 H          66.1024   93.5015   14.8281 H       1  UNL1        0.1552
     36 C          68.9542   93.9973   16.3899 C.2     1  UNL1        0.0048
     37 C          68.5522   92.6629   15.8351 C.2     1  UNL1        0.0580
@<TRIPOS>BOND
     1    36    37    2
     2    37    32    1
     3    32    33    2
     4    32    34   am
     5    34    25    1
     6    25    26   ar
     7    26    27   ar
     8    27    28   ar
     9    28    29   ar
    10    29    30    1
    11    29    31   ar
    12    31    23    1
    13    23     1    1
    14     1     2   ar
    15     2     3   ar
    16     3     4   ar
    17     4     5   ar
    18     5     6   ar
    19     6    11    1
    20    11    12   ar
    21    12    13    1
    22    12    14   ar
    23    14    19    1
    24    19    20    1
    25    14    15   ar
    26    15    16   ar
    27    16    21    1
    28    21    22    1
    29    16    17   ar
    30    17    18    1
    31     6     7   ar
    32     7     8   ar
    33     8     9   ar
    34     9    10   ar
    35    31    25   ar
    36    10     1   ar
    37     9     4   ar
    38    17    11   ar
    39    34    35    1
    40    23    24    1
@<TRIPOS>MOLECULE
*****
 37 40 0 0 0
SMALL
GASTEIGER

@<TRIPOS>ATOM
      1 C          64.2456   89.4071   14.0274 C.ar    1  UNL1        0.2207
      2 N          64.7983   88.4986   15.0852 N.ar    1  UNL1       -0.2120
      3 C          64.6057   87.0151   14.9753 C.ar    1  UNL1        0.1033
      4 C          63.8603   86.4401   13.8074 C.ar    1  UNL1        0.0370
      5 C          63.6677   84.9566   13.6975 C.ar    1  UNL1        0.0031
      6 C          62.9224   84.3816   12.5296 C.ar    1  UNL1        0.0020
      7 C          62.3697   85.2901   11.4717 C.ar    1  UNL1        0.0016
      8 C          62.5623   86.7736   11.5817 C.ar    1  UNL1        0.0192
      9 C          63.3076   87.3486   12.7496 C.ar    1  UNL1        0.0857
     10 N          63.5003   88.8321   12.8595 N.ar    1  UNL1       -0.2135
     11 C          62.7298   82.8981   12.4196 C.ar    1  UNL1        0.0271
     12 C          61.9947   82.1554   13.4958 C.ar    1  UNL1        0.0925
     13 CL         61.4523   82.8962   14.6820 Cl      1  UNL1       -0.0791
     14 C          61.8021   80.6719   13.3858 C.ar    1  UNL1        0.1522
     15 C          62.3445   79.9310   12.1997 C.ar    1  UNL1        0.0755
     16 C          63.0795   80.6737   11.1235 C.ar    1  UNL1        0.1522
     17 C          63.2722   82.1572   11.2335 C.ar    1  UNL1        0.0925
     18 CL         64.0072   82.8999   10.1573 Cl      1  UNL1       -0.0791
     19 O          61.0671   79.9293   14.4620 O.3     1  UNL1       -0.4705
     20 C          59.5719   79.8200   14.4108 C.3     1  UNL1        0.2525
     21 O          63.6219   79.9328    9.9374 O.3     1  UNL1       -0.4705
     22 C          62.8175   78.8351    9.3067 C.3     1  UNL1        0.2525
     23 N          64.4382   90.8906   14.1373 N.pl3   1  UNL1       -0.2818
     24 H          64.1941   91.3584   14.9685 H       1  UNL1        0.1551
     25 C          64.1239   92.0236   11.8205 C.ar    1  UNL1        0.0639
     26 C          64.6883   92.7943   10.6641 C.ar    1  UNL1        0.0159
     27 C          66.1316   93.2029   10.6681 C.ar    1  UNL1        0.0010
     28 C          67.0104   92.8408   11.8285 C.ar    1  UNL1       -0.0030
     29 C          66.4459   92.0700   12.9850 C.ar    1  UNL1       -0.0072
     30 C          67.3247   91.7079   14.1453 C.3     1  UNL1        0.0324
     31 C          65.0027   91.6614   12.9809 C.ar    1  UNL1        0.0601
     32 C          62.1702   90.6748   10.7650 C.2     1  UNL1        0.2497
     33 O          63.1031   90.1433    9.7176 O.2     1  UNL1       -0.2698
     34 N          62.6806   91.6149   11.8165 N.am    1  UNL1       -0.2794
     35 H          62.0683   91.9638   12.5040 H       1  UNL1        0.1552
     36 C          60.0909   89.7471   12.0164 C.2     1  UNL1        0.0048
     37 C          60.7269   90.2662   10.7610 C.2     1  UNL1        0.0580
@<TRIPOS>BOND
     1    36    37    2
     2    37    32    1
     3    32    33    2
     4    32    34   am
     5    34    25    1
     6    25    26   ar
     7    26    27   ar
     8    27    28   ar
     9    28    29   ar
    10    29    30    1
    11    29    31   ar
    12    31    23    1
    13    23     1    1
    14     1     2   ar
    15     2     3   ar
    16     3     4   ar
    17     4     5   ar
    18     5     6   ar
    19     6    11    1
    20    11    12   ar
    21    12    13    1
    22    12    14   ar
    23    14    19    1
    24    19    20    1
    25    14    15   ar
    26    15    16   ar
    27    16    21    1
    28    21    22    1
    29    16    17   ar
    30    17    18    1
    31     6     7   ar
    32     7     8   ar
    33     8     9   ar
    34     9    10   ar
    35    31    25   ar
    36    10     1   ar
    37     9     4   ar
    38    17    11   ar
    39    34    35    1
    40    23    24    1
@<TRIPOS>MOLECULE
*****
 37 40 0 0 0
SMALL
GASTEIGER

@<TRIPOS>ATOM
      1 C          64.2451   89.3481   14.0702 C.ar    1  UNL1        0.2207
      2 N          64.8003   88.4204   15.1099 N.ar    1  UNL1       -0.2120
      3 C          64.6067   86.9392   14.9736 C.ar    1  UNL1        0.1033
      4 C          63.8579   86.3858   13.7976 C.ar    1  UNL1        0.0370
      5 C          63.6643   84.9045   13.6614 C.ar    1  UNL1        0.0031
      6 C          62.9155   84.3511   12.4854 C.ar    1  UNL1        0.0020
      7 C          62.3602   85.2789   11.4456 C.ar    1  UNL1        0.0016
      8 C          62.5538   86.7600   11.5819 C.ar    1  UNL1        0.0192
      9 C          63.3027   87.3135   12.7579 C.ar    1  UNL1        0.0857
     10 N          63.4963   88.7946   12.8942 N.ar    1  UNL1       -0.2135
     11 C          62.7219   82.8699   12.3491 C.ar    1  UNL1        0.0271
     12 C          63.2300   82.1560   11.1316 C.ar    1  UNL1        0.0925
     13 CL         63.9317   82.9233   10.0505 Cl      1  UNL1       -0.0791
     14 C          63.0364   80.6748   10.9953 C.ar    1  UNL1        0.1522
     15 C          62.3347   79.9075   12.0764 C.ar    1  UNL1        0.0755
     16 C          61.8266   80.6213   13.2939 C.ar    1  UNL1        0.1522
     17 C          62.0202   82.1026   13.4302 C.ar    1  UNL1        0.0925
     18 CL         61.5121   82.8165   14.6476 Cl      1  UNL1       -0.0791
     19 O          63.5445   79.9609    9.7779 O.3     1  UNL1       -0.4705
     20 C          63.1185   78.5490    9.5039 C.3     1  UNL1        0.2525
     21 O          61.1249   79.8540   14.3750 O.3     1  UNL1       -0.4705
     22 C          59.6261   79.8025   14.4062 C.3     1  UNL1        0.2525
     23 N          64.4387   90.8293   14.2065 N.pl3   1  UNL1       -0.2818
     24 H          64.1881   91.2836   15.0432 H       1  UNL1        0.1551
     25 C          64.1433   92.0095   11.9108 C.ar    1  UNL1        0.0639
     26 C          64.7186   92.7986   10.7723 C.ar    1  UNL1        0.0159
     27 C          66.1648   93.1965   10.7908 C.ar    1  UNL1        0.0010
     28 C          67.0355   92.8054   11.9478 C.ar    1  UNL1       -0.0030
     29 C          66.4602   92.0163   13.0864 C.ar    1  UNL1       -0.0072
     30 C          67.3309   91.6253   14.2435 C.3     1  UNL1        0.0324
     31 C          65.0140   91.6184   13.0679 C.ar    1  UNL1        0.0601
     32 C          62.1843   90.6980   10.8189 C.2     1  UNL1        0.2497
     33 O          63.1177   90.1824    9.7639 O.2     1  UNL1       -0.2698
     34 N          62.6971   91.6116   11.8923 N.am    1  UNL1       -0.2794
     35 H          62.0846   91.9500   12.5848 H       1  UNL1        0.1552
     36 C          60.1228   89.6534   12.0058 C.2     1  UNL1        0.0048
     37 C          60.7382   90.3001   10.8004 C.2     1  UNL1        0.0580
@<TRIPOS>BOND
     1    36    37    2
     2    37    32    1
     3    32    33    2
     4    32    34   am
     5    34    25    1
     6    25    26   ar
     7    26    27   ar
     8    27    28   ar
     9    28    29   ar
    10    29    30    1
    11    29    31   ar
    12    31    23    1
    13    23     1    1
    14     1     2   ar
    15     2     3   ar
    16     3     4   ar
    17     4     5   ar
    18     5     6   ar
    19     6    11    1
    20    11    12   ar
    21    12    13    1
    22    12    14   ar
    23    14    19    1
    24    19    20    1
    25    14    15   ar
    26    15    16   ar
    27    16    21    1
    28    21    22    1
    29    16    17   ar
    30    17    18    1
    31     6     7   ar
    32     7     8   ar
    33     8     9   ar
    34     9    10   ar
    35    31    25   ar
    36    10     1   ar
    37     9     4   ar
    38    17    11   ar
    39    34    35    1
    40    23    24    1
@<TRIPOS>MOLECULE
*****
 37 40 0 0 0
SMALL
GASTEIGER

@<TRIPOS>ATOM
      1 C          63.6392   90.1620   12.8576 C.ar    1  UNL1        0.2207
      2 N          62.7350   89.7747   11.7251 N.ar    1  UNL1       -0.2120
      3 C          62.4165   88.3296   11.4803 C.ar    1  UNL1        0.1033
      4 C          63.0020   87.2717   12.3680 C.ar    1  UNL1        0.0370
      5 C          62.6833   85.8264   12.1232 C.ar    1  UNL1        0.0031
      6 C          63.2689   84.7685   13.0109 C.ar    1  UNL1        0.0020
      7 C          64.1730   85.1558   14.1434 C.ar    1  UNL1        0.0016
      8 C          64.4916   86.6010   14.3882 C.ar    1  UNL1        0.0192
      9 C          63.9061   87.6589   13.5005 C.ar    1  UNL1        0.0857
     10 N          64.2247   89.1041   13.7453 N.ar    1  UNL1       -0.2135
     11 C          62.9503   83.3234   12.7661 C.ar    1  UNL1        0.0271
     12 C          62.1740   82.5434   13.7854 C.ar    1  UNL1        0.0925
     13 CL         61.7163   83.2086   15.0495 Cl      1  UNL1       -0.0791
     14 C          61.8554   81.0982   13.5406 C.ar    1  UNL1        0.1522
     15 C          62.3131   80.4330   12.2765 C.ar    1  UNL1        0.0755
     16 C          63.0893   81.2129   11.2572 C.ar    1  UNL1        0.1522
     17 C          63.4080   82.6581   11.5020 C.ar    1  UNL1        0.0925
     18 CL         64.1843   83.4380   10.4826 Cl      1  UNL1       -0.0791
     19 O          61.0791   80.3183   14.5599 O.3     1  UNL1       -0.4705
     20 C          59.6294   80.0125   14.3256 C.3     1  UNL1        0.2525
     21 O          63.5470   80.5476    9.9931 O.3     1  UNL1       -0.4705
     22 C          62.9538   79.2334    9.5799 C.3     1  UNL1        0.2525
     23 N          63.9578   91.6072   13.1024 N.pl3   1  UNL1       -0.2818
     24 H          63.5579   92.0762   13.8701 H       1  UNL1        0.1551
     25 C          66.1139   93.0057   12.7212 C.ar    1  UNL1        0.0639
     26 C          67.0418   93.7363   11.7964 C.ar    1  UNL1        0.0159
     27 C          66.7416   93.7989   10.3281 C.ar    1  UNL1        0.0010
     28 C          65.5135   93.1309    9.7846 C.ar    1  UNL1       -0.0030
     29 C          64.5855   92.4003   10.7093 C.ar    1  UNL1       -0.0072
     30 C          63.3573   91.7324   10.1658 C.3     1  UNL1        0.0324
     31 C          64.8857   92.3377   12.1777 C.ar    1  UNL1        0.0601
     32 C          67.7068   92.3502   14.6661 C.2     1  UNL1        0.2497
     33 O          68.6993   91.8198   13.6744 O.2     1  UNL1       -0.2698
     34 N          66.4141   92.9431   14.1895 N.am    1  UNL1       -0.2794
     35 H          65.7627   93.2913   14.8404 H       1  UNL1        0.1552
     36 C          69.3345   92.7594   16.6493 C.2     1  UNL1        0.0048
     37 C          68.0071   92.2876   16.1344 C.2     1  UNL1        0.0580
@<TRIPOS>BOND
     1    36    37    2
     2    37    32    1
     3    32    33    2
     4    32    34   am
     5    34    25    1
     6    25    26   ar
     7    26    27   ar
     8    27    28   ar
     9    28    29   ar
    10    29    30    1
    11    29    31   ar
    12    31    23    1
    13    23     1    1
    14     1     2   ar
    15     2     3   ar
    16     3     4   ar
    17     4     5   ar
    18     5     6   ar
    19     6    11    1
    20    11    12   ar
    21    12    13    1
    22    12    14   ar
    23    14    19    1
    24    19    20    1
    25    14    15   ar
    26    15    16   ar
    27    16    21    1
    28    21    22    1
    29    16    17   ar
    30    17    18    1
    31     6     7   ar
    32     7     8   ar
    33     8     9   ar
    34     9    10   ar
    35    31    25   ar
    36    10     1   ar
    37     9     4   ar
    38    17    11   ar
    39    34    35    1
    40    23    24    1
