@<TRIPOS>MOLECULE
*****
 48 54 0 0 0
SMALL
GASTEIGER

@<TRIPOS>ATOM
      1 C          60.4338   88.2814    8.6543 C.3     1  UNL1        0.1543
      2 O          57.9830   89.2352    7.2105 O.2     1  UNL1       -0.2526
      3 C          59.3417   89.6804    6.7569 C.2     1  UNL1        0.3043
      4 N          60.5670   89.2036    7.4788 N.am    1  UNL1       -0.2822
      5 N          59.4749   90.6026    5.5815 N.am    1  UNL1       -0.2641
      6 C          58.2496   91.0795    4.8596 C.3     1  UNL1        0.0966
      7 C          58.3829   92.0017    3.6840 C.3     1  UNL1        0.0415
      8 C          59.7415   92.4470    3.2304 C.3     1  UNL1        0.0806
      9 C          60.9669   91.9701    3.9523 C.3     1  UNL1        0.0415
     10 C          60.8336   91.0480    5.1278 C.3     1  UNL1        0.0966
     11 H          61.4587   89.4958    7.1811 H       1  UNL1        0.1514
     12 N          59.8748   93.3692    2.0550 N.am    1  UNL1       -0.2613
     13 C          59.8752   92.8132    0.6618 C.3     1  UNL1        0.1228
     14 C          60.0085   93.7355   -0.5137 C.ar    1  UNL1        0.0112
     15 C          60.0089   93.1795   -1.9069 C.ar    1  UNL1       -0.0014
     16 C          60.1422   94.1017   -3.0824 C.ar    1  UNL1       -0.0002
     17 C          60.2751   95.5799   -2.8647 C.ar    1  UNL1        0.0013
     18 C          60.2746   96.1359   -1.4715 C.ar    1  UNL1        0.0144
     19 C          60.1414   95.2136   -0.2960 C.ar    1  UNL1        0.0492
     20 N          60.1409   95.7696    1.0971 N.am    1  UNL1       -0.2684
     21 C          60.0077   94.8474    2.2726 C.2     1  UNL1        0.3079
     22 O          60.0072   95.4034    3.6658 O.2     1  UNL1       -0.2522
     23 H          60.2281   96.7397    1.2400 H       1  UNL1        0.1564
     24 C          60.2438   88.8445   10.0315 C.2     1  UNL1        0.2439
     25 O          58.9241   88.6927   10.7284 O.2     1  UNL1       -0.2731
     26 N          61.3733   89.5593   10.7119 N.am    1  UNL1       -0.2781
     27 C          61.1833   90.1224   12.0892 C.3     1  UNL1        0.0948
     28 C          62.3129   90.8373   12.7696 C.3     1  UNL1        0.0375
     29 C          63.6326   90.9891   12.0728 C.3     1  UNL1        0.0609
     30 C          63.8226   90.4260   10.6955 C.3     1  UNL1        0.0375
     31 C          62.6929   89.7111   10.0151 C.3     1  UNL1        0.0948
     32 N          64.7621   91.7039   12.7532 N.3     1  UNL1       -0.2738
     33 C          65.3865   92.9054   12.1077 C.3     1  UNL1        0.0720
     34 C          66.5161   93.6202   12.7881 C.3     1  UNL1        0.0174
     35 C          67.0213   93.1336   14.1141 C.3     1  UNL1        0.0029
     36 C          66.3969   91.9321   14.7595 C.3     1  UNL1        0.0174
     37 C          65.2673   91.2173   14.0790 C.3     1  UNL1        0.0720
     38 C          60.4905   86.7961    8.4525 C.3     1  UNL1        0.0551
     39 C          61.4511   85.9667    9.2521 C.2     1  UNL1       -0.0208
     40 C          62.5322   85.1928    8.5575 C.2     1  UNL1       -0.0240
     41 C          63.4929   84.3635    9.3571 C.3     1  UNL1        0.0721
     42 C          63.3725   84.3080   10.8512 C.2     1  UNL1        0.0932
     43 N          64.1680   83.5831   11.8961 N.am    1  UNL1       -0.1431
     44 C          63.5786   83.9089   13.2364 C.2     1  UNL1        0.4298
     45 O          64.0637   83.3980   14.5606 O.2     1  UNL1       -0.2238
     46 O          62.4188   84.8352   13.0199 O.3     1  UNL1       -0.4079
     47 C          62.2915   85.0819   11.5458 C.2     1  UNL1        0.1613
     48 C          61.3308   85.9113   10.7463 C.2     1  UNL1        0.0342
@<TRIPOS>BOND
     1     2     3    2
     2     3     4   am
     3     4     1    1
     4     1    38    1
     5    38    39    1
     6    39    40    2
     7    40    41    1
     8    41    42    1
     9    42    43    2
    10    43    44    1
    11    44    45    2
    12    44    46    1
    13    46    47    1
    14    47    48    2
    15     1    24    1
    16    24    25    2
    17    24    26   am
    18    26    27    1
    19    27    28    1
    20    28    29    1
    21    29    32    1
    22    32    33    1
    23    33    34    1
    24    34    35    1
    25    35    36    1
    26    36    37    1
    27    29    30    1
    28    30    31    1
    29     3     5   am
    30     5     6    1
    31     6     7    1
    32     7     8    1
    33     8    12    1
    34    12    13    1
    35    13    14    1
    36    14    15   ar
    37    15    16   ar
    38    16    17   ar
    39    17    18   ar
    40    18    19   ar
    41    19    20    1
    42    20    21   am
    43    21    22    2
    44     8     9    1
    45     9    10    1
    46    48    39    1
    47    31    26    1
    48    10     5    1
    49    47    42    1
    50    37    32    1
    51    21    12   am
    52    19    14   ar
    53     4    11    1
    54    20    23    1
@<TRIPOS>MOLECULE
*****
 48 54 0 0 0
SMALL
GASTEIGER

@<TRIPOS>ATOM
      1 C          59.5785   88.7116    7.5750 C.3     1  UNL1        0.1543
      2 O          59.5994   88.6986   10.5749 O.2     1  UNL1       -0.2526
      3 C          60.7040   89.3769    9.8202 C.2     1  UNL1        0.3043
      4 N          60.6936   89.3834    8.3202 N.am    1  UNL1       -0.2822
      5 N          61.8190   90.0488   10.5653 N.am    1  UNL1       -0.2641
      6 C          61.8294   90.0423   12.0653 C.3     1  UNL1        0.0966
      7 C          62.9445   90.7142   12.8104 C.3     1  UNL1        0.0415
      8 C          64.0491   91.3925   12.0557 C.3     1  UNL1        0.0806
      9 C          64.0387   91.3989   10.5557 C.3     1  UNL1        0.0415
     10 C          62.9237   90.7271    9.8105 C.3     1  UNL1        0.0966
     11 H          61.4186   89.8286    7.8248 H       1  UNL1        0.1514
     12 N          65.1642   92.0643   12.8008 N.am    1  UNL1       -0.2613
     13 C          65.7363   91.4247   14.0311 C.3     1  UNL1        0.1228
     14 C          66.8514   92.0966   14.7763 C.ar    1  UNL1        0.0112
     15 C          67.4235   91.4570   16.0066 C.ar    1  UNL1       -0.0014
     16 C          68.5385   92.1288   16.7518 C.ar    1  UNL1       -0.0002
     17 C          69.0815   93.4403   16.2667 C.ar    1  UNL1        0.0013
     18 C          68.5093   94.0799   15.0364 C.ar    1  UNL1        0.0144
     19 C          67.3943   93.4080   14.2912 C.ar    1  UNL1        0.0492
     20 N          66.8221   94.0476   13.0609 N.am    1  UNL1       -0.2684
     21 C          65.7071   93.3758   12.3157 C.2     1  UNL1        0.3079
     22 O          65.1350   94.0154   11.0854 O.2     1  UNL1       -0.2522
     23 H          67.1785   94.9084   12.7425 H       1  UNL1        0.1564
     24 C          58.6604   89.5218    6.7087 C.2     1  UNL1        0.2439
     25 O          57.1744   89.4090    6.8795 O.2     1  UNL1       -0.2731
     26 N          59.2282   90.4447    5.6715 N.am    1  UNL1       -0.2781
     27 C          58.3100   91.2549    4.8052 C.3     1  UNL1        0.0948
     28 C          58.8778   92.1779    3.7680 C.3     1  UNL1        0.0375
     29 C          60.3639   92.2906    3.5972 C.3     1  UNL1        0.0609
     30 C          61.2820   91.4804    4.4635 C.3     1  UNL1        0.0375
     31 C          60.7141   90.5574    5.5007 C.3     1  UNL1        0.0948
     32 N          60.9317   93.2136    2.5600 N.3     1  UNL1       -0.2738
     33 C          60.1821   94.4520    2.1670 C.3     1  UNL1        0.0720
     34 C          60.7499   95.3750    1.1299 C.3     1  UNL1        0.0174
     35 C          62.0673   95.0595    0.4857 C.3     1  UNL1        0.0029
     36 C          62.8169   93.8210    0.8786 C.3     1  UNL1        0.0174
     37 C          62.2490   92.8981    1.9159 C.3     1  UNL1        0.0720
     38 C          59.3816   87.2294    7.6962 C.3     1  UNL1        0.0551
     39 C          60.5166   86.3560    8.1421 C.2     1  UNL1       -0.0208
     40 C          61.4099   85.7096    7.1251 C.2     1  UNL1       -0.0240
     41 C          62.5450   84.8362    7.5710 C.3     1  UNL1        0.0721
     42 C          62.7867   84.6091    9.0338 C.2     1  UNL1        0.0932
     43 N          63.8187   83.8051    9.7677 N.am    1  UNL1       -0.1431
     44 C          63.5633   83.9545   11.2382 C.2     1  UNL1        0.4298
     45 O          64.3582   83.3192   12.3402 O.2     1  UNL1       -0.2238
     46 O          62.3734   84.8509   11.4132 O.3     1  UNL1       -0.4079
     47 C          61.8934   85.2555   10.0508 C.2     1  UNL1        0.1613
     48 C          60.7584   86.1289    9.6050 C.2     1  UNL1        0.0342
@<TRIPOS>BOND
     1     2     3    2
     2     3     4   am
     3     4     1    1
     4     1    38    1
     5    38    39    1
     6    39    40    2
     7    40    41    1
     8    41    42    1
     9    42    43    2
    10    43    44    1
    11    44    45    2
    12    44    46    1
    13    46    47    1
    14    47    48    2
    15     1    24    1
    16    24    25    2
    17    24    26   am
    18    26    27    1
    19    27    28    1
    20    28    29    1
    21    29    32    1
    22    32    33    1
    23    33    34    1
    24    34    35    1
    25    35    36    1
    26    36    37    1
    27    29    30    1
    28    30    31    1
    29     3     5   am
    30     5     6    1
    31     6     7    1
    32     7     8    1
    33     8    12    1
    34    12    13    1
    35    13    14    1
    36    14    15   ar
    37    15    16   ar
    38    16    17   ar
    39    17    18   ar
    40    18    19   ar
    41    19    20    1
    42    20    21   am
    43    21    22    2
    44     8     9    1
    45     9    10    1
    46    48    39    1
    47    31    26    1
    48    10     5    1
    49    47    42    1
    50    37    32    1
    51    21    12   am
    52    19    14   ar
    53     4    11    1
    54    20    23    1
@<TRIPOS>MOLECULE
*****
 48 54 0 0 0
SMALL
GASTEIGER

@<TRIPOS>ATOM
      1 C          60.2628   89.1606    8.1000 C.3     1  UNL1        0.1543
      2 O          58.0978   90.3351    6.3873 O.2     1  UNL1       -0.2526
      3 C          59.5377   90.5319    6.0159 C.2     1  UNL1        0.3043
      4 N          60.6202   89.9447    6.8723 N.am    1  UNL1       -0.2822
      5 N          59.8950   91.3160    4.7881 N.am    1  UNL1       -0.2641
      6 C          58.8125   91.9032    3.9318 C.3     1  UNL1        0.0966
      7 C          59.1699   92.6873    2.7039 C.3     1  UNL1        0.0415
      8 C          60.6098   92.8842    2.3325 C.3     1  UNL1        0.0806
      9 C          61.6923   92.2970    3.1889 C.3     1  UNL1        0.0415
     10 C          61.3349   91.5129    4.4166 C.3     1  UNL1        0.0966
     11 H          61.5652   90.0739    6.6285 H       1  UNL1        0.1514
     12 N          60.9671   93.6682    1.1047 N.am    1  UNL1       -0.2613
     13 C          61.6025   92.9794   -0.0666 C.3     1  UNL1        0.1228
     14 C          61.9598   93.7635   -1.2944 C.ar    1  UNL1        0.0112
     15 C          62.5952   93.0747   -2.4656 C.ar    1  UNL1       -0.0014
     16 C          62.9525   93.8588   -3.6934 C.ar    1  UNL1       -0.0002
     17 C          62.6745   95.3318   -3.7500 C.ar    1  UNL1        0.0013
     18 C          62.0392   96.0206   -2.5787 C.ar    1  UNL1        0.0144
     19 C          61.6818   95.2364   -1.3509 C.ar    1  UNL1        0.0492
     20 N          61.0465   95.9253   -0.1796 N.am    1  UNL1       -0.2684
     21 C          60.6891   95.1412    1.0481 C.2     1  UNL1        0.3079
     22 O          60.0538   95.8300    2.2194 O.2     1  UNL1       -0.2522
     23 H          60.8640   96.8920   -0.2168 H       1  UNL1        0.1564
     24 C          60.2089   87.6627    8.0440 C.2     1  UNL1        0.2439
     25 O          59.4008   86.9805    6.9801 O.2     1  UNL1       -0.2731
     26 N          60.9631   86.8468    9.0518 N.am    1  UNL1       -0.2781
     27 C          60.9092   85.3488    8.9958 C.3     1  UNL1        0.0948
     28 C          61.6633   84.5330   10.0035 C.3     1  UNL1        0.0375
     29 C          62.4714   85.2152   11.0674 C.3     1  UNL1        0.0609
     30 C          62.5253   86.7131   11.1234 C.3     1  UNL1        0.0375
     31 C          61.7711   87.5290   10.1156 C.3     1  UNL1        0.0948
     32 N          63.2255   84.3993   12.0752 N.3     1  UNL1       -0.2738
     33 C          63.5793   82.9734   11.7724 C.3     1  UNL1        0.0720
     34 C          64.3334   82.1576   12.7802 C.3     1  UNL1        0.0174
     35 C          64.7338   82.7676   14.0908 C.3     1  UNL1        0.0029
     36 C          64.3800   84.1935   14.3936 C.3     1  UNL1        0.0174
     37 C          63.6258   85.0094   13.3857 C.3     1  UNL1        0.0720
     38 C          59.9594   89.8746    9.3839 C.3     1  UNL1        0.0551
     39 C          61.0671   90.1983   10.3420 C.2     1  UNL1       -0.0208
     40 C          62.3138   90.8702    9.8477 C.2     1  UNL1       -0.0240
     41 C          63.4216   91.1940   10.8059 C.3     1  UNL1        0.0721
     42 C          63.2827   90.8458   12.2583 C.2     1  UNL1        0.0932
     43 N          64.2000   91.0400   13.4291 N.am    1  UNL1       -0.1431
     44 C          63.5202   90.4882   14.6471 C.2     1  UNL1        0.4298
     45 O          64.0797   90.4741   16.0388 O.2     1  UNL1       -0.2238
     46 O          62.1829   89.9529   14.2289 O.3     1  UNL1       -0.4079
     47 C          62.0361   90.1739   12.7526 C.2     1  UNL1        0.1613
     48 C          60.9283   89.8501   11.7945 C.2     1  UNL1        0.0342
@<TRIPOS>BOND
     1     2     3    2
     2     3     4   am
     3     4     1    1
     4     1    38    1
     5    38    39    1
     6    39    40    2
     7    40    41    1
     8    41    42    1
     9    42    43    2
    10    43    44    1
    11    44    45    2
    12    44    46    1
    13    46    47    1
    14    47    48    2
    15     1    24    1
    16    24    25    2
    17    24    26   am
    18    26    27    1
    19    27    28    1
    20    28    29    1
    21    29    32    1
    22    32    33    1
    23    33    34    1
    24    34    35    1
    25    35    36    1
    26    36    37    1
    27    29    30    1
    28    30    31    1
    29     3     5   am
    30     5     6    1
    31     6     7    1
    32     7     8    1
    33     8    12    1
    34    12    13    1
    35    13    14    1
    36    14    15   ar
    37    15    16   ar
    38    16    17   ar
    39    17    18   ar
    40    18    19   ar
    41    19    20    1
    42    20    21   am
    43    21    22    2
    44     8     9    1
    45     9    10    1
    46    48    39    1
    47    31    26    1
    48    10     5    1
    49    47    42    1
    50    37    32    1
    51    21    12   am
    52    19    14   ar
    53     4    11    1
    54    20    23    1
@<TRIPOS>MOLECULE
*****
 48 54 0 0 0
SMALL
GASTEIGER

@<TRIPOS>ATOM
      1 C          60.0880   89.3144    7.7289 C.3     1  UNL1        0.1543
      2 O          58.3491   90.9950    5.9536 O.2     1  UNL1       -0.2526
      3 C          59.8024   90.8162    5.6282 C.2     1  UNL1        0.3043
      4 N          60.6718   89.9759    6.5158 N.am    1  UNL1       -0.2822
      5 N          60.3862   91.4776    4.4151 N.am    1  UNL1       -0.2641
      6 C          59.5168   92.3179    3.5274 C.3     1  UNL1        0.0966
      7 C          60.1007   92.9794    2.3143 C.3     1  UNL1        0.0415
      8 C          61.5539   92.8005    1.9889 C.3     1  UNL1        0.0806
      9 C          62.4234   91.9603    2.8766 C.3     1  UNL1        0.0415
     10 C          61.8396   91.2988    4.0896 C.3     1  UNL1        0.0966
     11 H          61.6257   89.8585    6.3022 H       1  UNL1        0.1514
     12 N          62.1378   93.4620    0.7758 N.am    1  UNL1       -0.2613
     13 C          63.3239   94.3697    0.9143 C.3     1  UNL1        0.1228
     14 C          63.9078   95.0311   -0.2989 C.ar    1  UNL1        0.0112
     15 C          65.0939   95.9388   -0.1605 C.ar    1  UNL1       -0.0014
     16 C          65.6777   96.6003   -1.3736 C.ar    1  UNL1       -0.0002
     17 C          65.0754   96.3541   -2.7251 C.ar    1  UNL1        0.0013
     18 C          63.8893   95.4464   -2.8635 C.ar    1  UNL1        0.0144
     19 C          63.3054   94.7849   -1.6504 C.ar    1  UNL1        0.0492
     20 N          62.1193   93.8773   -1.7888 N.am    1  UNL1       -0.2684
     21 C          61.5354   93.2158   -0.5757 C.2     1  UNL1        0.3079
     22 O          60.3493   92.3081   -0.7141 O.2     1  UNL1       -0.2522
     23 H          61.7239   93.7157   -2.6758 H       1  UNL1        0.1564
     24 C          59.9689   87.8202    7.7842 C.2     1  UNL1        0.2439
     25 O          59.0591   87.1045    6.8302 O.2     1  UNL1       -0.2731
     26 N          60.7596   87.0416    8.7934 N.am    1  UNL1       -0.2781
     27 C          60.6404   85.5474    8.8487 C.3     1  UNL1        0.0948
     28 C          61.4311   84.7688    9.8580 C.3     1  UNL1        0.0375
     29 C          62.3409   85.4845   10.8120 C.3     1  UNL1        0.0609
     30 C          62.4601   86.9787   10.7567 C.3     1  UNL1        0.0375
     31 C          61.6693   87.7573    9.7474 C.3     1  UNL1        0.0948
     32 N          63.1316   84.7059   11.8213 N.3     1  UNL1       -0.2738
     33 C          63.4706   85.3224   13.1460 C.3     1  UNL1        0.0720
     34 C          64.2612   84.5439   14.1553 C.3     1  UNL1        0.0174
     35 C          64.7130   83.1487   13.8398 C.3     1  UNL1        0.0029
     36 C          64.3740   82.5321   12.5150 C.3     1  UNL1        0.0174
     37 C          63.5833   83.3108   11.5058 C.3     1  UNL1        0.0720
     38 C          59.6233   90.1472    8.8867 C.3     1  UNL1        0.0551
     39 C          60.4230   90.1808   10.1553 C.2     1  UNL1       -0.0208
     40 C          59.8134   89.7014   11.4392 C.2     1  UNL1       -0.0240
     41 C          60.6132   89.7350   12.7078 C.3     1  UNL1        0.0721
     42 C          62.0227   90.2480   12.6923 C.2     1  UNL1        0.0932
     43 N          63.0474   90.4000   13.7772 N.am    1  UNL1       -0.1431
     44 C          64.2903   90.9733   13.1638 C.2     1  UNL1        0.4298
     45 O          65.5659   91.2889   13.8873 O.2     1  UNL1       -0.2238
     46 O          64.0338   91.1757   11.6998 O.3     1  UNL1       -0.4079
     47 C          62.6323   90.7274   11.4084 C.2     1  UNL1        0.1613
     48 C          61.8325   90.6938   10.1399 C.2     1  UNL1        0.0342
@<TRIPOS>BOND
     1     2     3    2
     2     3     4   am
     3     4     1    1
     4     1    38    1
     5    38    39    1
     6    39    40    2
     7    40    41    1
     8    41    42    1
     9    42    43    2
    10    43    44    1
    11    44    45    2
    12    44    46    1
    13    46    47    1
    14    47    48    2
    15     1    24    1
    16    24    25    2
    17    24    26   am
    18    26    27    1
    19    27    28    1
    20    28    29    1
    21    29    32    1
    22    32    33    1
    23    33    34    1
    24    34    35    1
    25    35    36    1
    26    36    37    1
    27    29    30    1
    28    30    31    1
    29     3     5   am
    30     5     6    1
    31     6     7    1
    32     7     8    1
    33     8    12    1
    34    12    13    1
    35    13    14    1
    36    14    15   ar
    37    15    16   ar
    38    16    17   ar
    39    17    18   ar
    40    18    19   ar
    41    19    20    1
    42    20    21   am
    43    21    22    2
    44     8     9    1
    45     9    10    1
    46    48    39    1
    47    31    26    1
    48    10     5    1
    49    47    42    1
    50    37    32    1
    51    21    12   am
    52    19    14   ar
    53     4    11    1
    54    20    23    1
