@<TRIPOS>MOLECULE
*****
 38 42 0 0 0
SMALL
GASTEIGER

@<TRIPOS>ATOM
      1 C          61.9779   86.6284   11.2136 C.3     1  UNL1        0.1532
      2 N          60.7609   87.2242   11.3512 N.3     1  UNL1       -0.3221
      3 C          61.0607   86.5858   10.0274 C.3     1  UNL1        0.0541
      4 C          62.3810   85.9105    9.8023 C.3     1  UNL1        0.0353
      5 C          62.5267   85.3190    8.4209 C.3     1  UNL1        0.0767
      6 C          62.3943   84.8388    7.0060 C.3     1  UNL1        0.0216
      7 C          61.0428   85.2501    6.5017 C.3     1  UNL1        0.0216
      8 C          60.3400   85.9844    7.6048 C.3     1  UNL1        0.0767
      9 C          60.0402   86.6228    8.9286 C.3     1  UNL1        0.0353
     10 N          61.2571   86.0269    8.7910 N.am    1  UNL1       -0.2814
     11 C          60.9574   86.6653   10.1148 C.2     1  UNL1        0.2437
     12 O          59.6371   87.3407   10.3399 O.2     1  UNL1       -0.2731
     13 H          61.5594   87.1053   11.9746 H       1  UNL1        0.1188
     14 H          59.9390   86.7826   11.7632 H       1  UNL1        0.1188
     15 N          61.8645   85.6095   12.3086 N.am    1  UNL1       -0.2978
     16 C          62.7839   84.4246   12.3285 C.2     1  UNL1        0.2257
     17 O          63.8987   83.9554   11.4412 O.2     1  UNL1       -0.2748
     18 H          61.1866   85.7185   13.0141 H       1  UNL1        0.1498
     19 C          62.6706   83.4056   13.4235 C.3     1  UNL1        0.0884
     20 C          62.5301   82.0752   14.1019 C.3     1  UNL1        0.0135
     21 C          62.5532   82.1547   12.6041 C.3     1  UNL1        0.0135
     22 C          62.7486   84.3027   14.6231 C.ar    1  UNL1       -0.0040
     23 C          61.4947   84.7062   15.3407 C.ar    1  UNL1       -0.0021
     24 C          61.5727   85.6034   16.5404 C.ar    1  UNL1        0.0111
     25 C          62.9047   86.0970   17.0224 C.ar    1  UNL1        0.0585
     26 CL         62.9828   86.9941   18.2220 Cl      1  UNL1       -0.0822
     27 C          64.1586   85.6934   16.3047 C.ar    1  UNL1        0.0225
     28 C          64.0805   84.7963   15.1051 C.ar    1  UNL1        0.0550
     29 CL         65.3344   84.3928   14.3875 Cl      1  UNL1       -0.0825
     30 C          63.1117   87.6103   11.2173 C.3     1  UNL1        0.0562
     31 C          63.3284   88.5014   12.4044 C.ar    1  UNL1       -0.0094
     32 C          63.9312   87.9444   13.6600 C.ar    1  UNL1       -0.0025
     33 C          64.1480   88.8353   14.8472 C.ar    1  UNL1        0.0111
     34 C          63.7618   90.2832   14.7787 C.ar    1  UNL1        0.0585
     35 CL         63.9786   91.1742   15.9658 Cl      1  UNL1       -0.0822
     36 C          63.1590   90.8401   13.5231 C.ar    1  UNL1        0.0225
     37 C          62.9423   89.9492   12.3360 C.ar    1  UNL1        0.0546
     38 CL         62.3395   90.5061   11.0804 Cl      1  UNL1       -0.0825
@<TRIPOS>BOND
     1     2     3    1
     2     3     4    1
     3     5     4    1
     4     5     6    1
     5     6     7    1
     6     8     7    1
     7     8     9    1
     8     8    10    1
     9    10    11   am
    10    11    12    2
    11    11     1    1
    12     1    30    1
    13    30    31    1
    14    31    32   ar
    15    32    33   ar
    16    33    34   ar
    17    34    35    1
    18    34    36   ar
    19    36    37   ar
    20    37    38    1
    21     1    15    1
    22    15    16   am
    23    16    17    2
    24    16    19    1
    25    19    22    1
    26    22    23   ar
    27    23    24   ar
    28    24    25   ar
    29    25    26    1
    30    25    27   ar
    31    27    28   ar
    32    28    29    1
    33    19    20    1
    34    20    21    1
    35     9     3    1
    36    37    31   ar
    37    21    19    1
    38    10     5    1
    39    28    22   ar
    40     2    13    1
    41     2    14    1
    42    15    18    1
@<TRIPOS>MOLECULE
*****
 38 42 0 0 0
SMALL
GASTEIGER

@<TRIPOS>ATOM
      1 C          63.3804   85.2147   13.4110 C.3     1  UNL1        0.1532
      2 N          62.4133   84.6848   14.2103 N.3     1  UNL1       -0.3221
      3 C          62.8896   83.8398   13.0662 C.3     1  UNL1        0.0541
      4 C          63.9529   84.3573   12.1434 C.3     1  UNL1        0.0353
      5 C          64.3205   83.3885   11.0454 C.3     1  UNL1        0.0767
      6 C          64.4792   82.2494   10.0824 C.3     1  UNL1        0.0216
      7 C          63.5264   81.1640   10.4875 C.3     1  UNL1        0.0216
      8 C          62.7790   81.6322   11.7008 C.3     1  UNL1        0.0767
      9 C          62.3027   82.4772   12.8450 C.3     1  UNL1        0.0353
     10 N          63.2698   83.0070   12.0456 N.am    1  UNL1       -0.2814
     11 C          62.7935   83.8521   13.1898 C.2     1  UNL1        0.2437
     12 O          61.7303   83.3346   14.1126 O.2     1  UNL1       -0.2731
     13 H          62.9161   85.5722   14.2100 H       1  UNL1        0.1188
     14 H          62.5863   84.1963   15.0889 H       1  UNL1        0.1188
     15 N          63.4317   86.2015   12.2826 N.am    1  UNL1       -0.2978
     16 C          62.1595   86.7035   11.6668 C.2     1  UNL1        0.2257
     17 O          60.7045   86.4411   11.9206 O.2     1  UNL1       -0.2748
     18 H          64.3005   86.5197   11.9460 H       1  UNL1        0.1498
     19 C          62.2107   87.6903   10.5383 C.3     1  UNL1        0.0884
     20 C          62.3411   88.9968    9.8132 C.3     1  UNL1        0.0135
     21 C          62.4566   88.9539   11.3082 C.3     1  UNL1        0.0135
     22 C          61.9825   86.7693    9.3765 C.ar    1  UNL1       -0.0040
     23 C          63.0870   85.8716    8.9029 C.ar    1  UNL1       -0.0021
     24 C          62.8589   84.9506    7.7411 C.ar    1  UNL1        0.0111
     25 C          61.5262   84.9274    7.0529 C.ar    1  UNL1        0.0585
     26 CL         61.2980   84.0063    5.8911 Cl      1  UNL1       -0.0822
     27 C          60.4217   85.8250    7.5266 C.ar    1  UNL1        0.0225
     28 C          60.6499   86.7460    8.6883 C.ar    1  UNL1        0.0550
     29 CL         59.5454   87.6437    9.1619 Cl      1  UNL1       -0.0825
     30 C          63.9160   85.5903   14.7608 C.3     1  UNL1        0.0562
     31 C          63.8360   87.0127   15.2302 C.ar    1  UNL1       -0.0094
     32 C          64.3871   88.1163   14.3765 C.ar    1  UNL1       -0.0025
     33 C          64.3072   89.5387   14.8457 C.ar    1  UNL1        0.0111
     34 C          63.6761   89.8577   16.1687 C.ar    1  UNL1        0.0585
     35 CL         63.5962   91.2802   16.6380 Cl      1  UNL1       -0.0822
     36 C          63.1251   88.7542   17.0223 C.ar    1  UNL1        0.0225
     37 C          63.2051   87.3318   16.5531 C.ar    1  UNL1        0.0546
     38 CL         62.6540   86.2283   17.4067 Cl      1  UNL1       -0.0825
@<TRIPOS>BOND
     1     2     3    1
     2     3     4    1
     3     5     4    1
     4     5     6    1
     5     6     7    1
     6     8     7    1
     7     8     9    1
     8     8    10    1
     9    10    11   am
    10    11    12    2
    11    11     1    1
    12     1    30    1
    13    30    31    1
    14    31    32   ar
    15    32    33   ar
    16    33    34   ar
    17    34    35    1
    18    34    36   ar
    19    36    37   ar
    20    37    38    1
    21     1    15    1
    22    15    16   am
    23    16    17    2
    24    16    19    1
    25    19    22    1
    26    22    23   ar
    27    23    24   ar
    28    24    25   ar
    29    25    26    1
    30    25    27   ar
    31    27    28   ar
    32    28    29    1
    33    19    20    1
    34    20    21    1
    35     9     3    1
    36    37    31   ar
    37    21    19    1
    38    10     5    1
    39    28    22   ar
    40     2    13    1
    41     2    14    1
    42    15    18    1
@<TRIPOS>MOLECULE
*****
 38 42 0 0 0
SMALL
GASTEIGER

@<TRIPOS>ATOM
      1 C          62.0569   87.8123   11.1935 C.3     1  UNL1        0.1532
      2 N          60.7163   88.0047   11.3379 N.3     1  UNL1       -0.3221
      3 C          61.1634   87.1751   10.1709 C.3     1  UNL1        0.0541
      4 C          62.6246   86.9204    9.9478 C.3     1  UNL1        0.0353
      5 C          62.9087   86.0696    8.7333 C.3     1  UNL1        0.0767
      6 C          62.8922   85.2235    7.4949 C.3     1  UNL1        0.0216
      7 C          61.4630   85.0387    7.0788 C.3     1  UNL1        0.0216
      8 C          60.5961   85.7706    8.0601 C.3     1  UNL1        0.0767
      9 C          60.1491   86.6003    9.2271 C.3     1  UNL1        0.0353
     10 N          61.4896   86.4078    9.0827 N.am    1  UNL1       -0.2814
     11 C          61.0426   87.2374   10.2496 C.2     1  UNL1        0.2437
     12 O          59.5814   87.4922   10.4728 O.2     1  UNL1       -0.2731
     13 H          61.5312   88.3113   11.8692 H       1  UNL1        0.1188
     14 H          60.1089   87.4473   11.9384 H       1  UNL1        0.1188
     15 N          63.1061   86.9266   11.7974 N.am    1  UNL1       -0.2978
     16 C          62.7081   85.8182   12.7262 C.2     1  UNL1        0.2257
     17 O          61.3947   85.3233   13.2557 O.2     1  UNL1       -0.2748
     18 H          64.0560   87.0729   11.5841 H       1  UNL1        0.1498
     19 C          63.7573   84.9324   13.3301 C.3     1  UNL1        0.0884
     20 C          64.8722   84.4749   14.2231 C.3     1  UNL1        0.0135
     21 C          64.3112   85.8580   14.3724 C.3     1  UNL1        0.0135
     22 C          63.5676   83.6992   12.4975 C.ar    1  UNL1       -0.0040
     23 C          64.1033   83.6498   11.0973 C.ar    1  UNL1       -0.0021
     24 C          63.9137   82.4165   10.2647 C.ar    1  UNL1        0.0111
     25 C          63.1883   81.2326   10.8325 C.ar    1  UNL1        0.0585
     26 CL         62.9986   79.9994    9.9999 Cl      1  UNL1       -0.0822
     27 C          62.6526   81.2821   12.2327 C.ar    1  UNL1        0.0225
     28 C          62.8422   82.5153   13.0652 C.ar    1  UNL1        0.0550
     29 CL         62.3065   82.5646   14.4654 Cl      1  UNL1       -0.0825
     30 C          62.0218   89.2728   11.5335 C.3     1  UNL1        0.0562
     31 C          63.1597   89.8949   12.2872 C.ar    1  UNL1       -0.0094
     32 C          63.5763   89.3332   13.6143 C.ar    1  UNL1       -0.0025
     33 C          64.7142   89.9553   14.3681 C.ar    1  UNL1        0.0111
     34 C          65.4355   91.1391   13.7949 C.ar    1  UNL1        0.0585
     35 CL         66.5733   91.7612   14.5487 Cl      1  UNL1       -0.0822
     36 C          65.0188   91.7008   12.4679 C.ar    1  UNL1        0.0225
     37 C          63.8809   91.0787   11.7141 C.ar    1  UNL1        0.0546
     38 CL         63.4643   91.6404   10.3871 Cl      1  UNL1       -0.0825
@<TRIPOS>BOND
     1     2     3    1
     2     3     4    1
     3     5     4    1
     4     5     6    1
     5     6     7    1
     6     8     7    1
     7     8     9    1
     8     8    10    1
     9    10    11   am
    10    11    12    2
    11    11     1    1
    12     1    30    1
    13    30    31    1
    14    31    32   ar
    15    32    33   ar
    16    33    34   ar
    17    34    35    1
    18    34    36   ar
    19    36    37   ar
    20    37    38    1
    21     1    15    1
    22    15    16   am
    23    16    17    2
    24    16    19    1
    25    19    22    1
    26    22    23   ar
    27    23    24   ar
    28    24    25   ar
    29    25    26    1
    30    25    27   ar
    31    27    28   ar
    32    28    29    1
    33    19    20    1
    34    20    21    1
    35     9     3    1
    36    37    31   ar
    37    21    19    1
    38    10     5    1
    39    28    22   ar
    40     2    13    1
    41     2    14    1
    42    15    18    1
@<TRIPOS>MOLECULE
*****
 38 42 0 0 0
SMALL
GASTEIGER

@<TRIPOS>ATOM
      1 C          63.4982   84.4630   12.4974 C.3     1  UNL1        0.1532
      2 N          64.6153   83.9629   11.9000 N.3     1  UNL1       -0.3221
      3 C          63.6733   82.9734   12.5193 C.3     1  UNL1        0.0541
      4 C          62.4221   83.4506   13.1952 C.3     1  UNL1        0.0353
      5 C          61.5829   82.3331   13.7662 C.3     1  UNL1        0.0767
      6 C          60.9653   81.0452   14.2245 C.3     1  UNL1        0.0216
      7 C          61.8663   79.9230   13.8016 C.3     1  UNL1        0.0216
      8 C          63.0406   80.5172   13.0820 C.3     1  UNL1        0.0767
      9 C          63.9825   81.5067   12.4627 C.3     1  UNL1        0.0353
     10 N          62.8654   82.0068   13.0601 N.am    1  UNL1       -0.2814
     11 C          63.8074   82.9963   12.4408 C.2     1  UNL1        0.2437
     12 O          65.0586   82.5191   11.7649 O.2     1  UNL1       -0.2731
     13 H          64.2513   84.9067   12.0307 H       1  UNL1        0.1188
     14 H          64.7055   83.7683   10.9028 H       1  UNL1        0.1188
     15 N          62.3567   85.0202   11.6996 N.am    1  UNL1       -0.2978
     16 C          62.2745   86.4946   11.4369 C.2     1  UNL1        0.2257
     17 O          63.1314   87.6686   11.8078 O.2     1  UNL1       -0.2748
     18 H          61.6614   84.4181   11.3485 H       1  UNL1        0.1498
     19 C          61.1330   87.0519   10.6391 C.3     1  UNL1        0.0884
     20 C          59.9165   87.8581   10.2925 C.3     1  UNL1        0.0135
     21 C          60.5206   87.9625   11.6616 C.3     1  UNL1        0.0135
     22 C          61.3490   86.3346    9.3394 C.ar    1  UNL1       -0.0040
     23 C          62.6825   85.7186    9.0354 C.ar    1  UNL1       -0.0021
     24 C          62.8985   85.0014    7.7358 C.ar    1  UNL1        0.0111
     25 C          61.7810   84.9002    6.7402 C.ar    1  UNL1        0.0585
     26 CL         61.9970   84.1830    5.4406 Cl      1  UNL1       -0.0822
     27 C          60.4476   85.5163    7.0443 C.ar    1  UNL1        0.0225
     28 C          60.2316   86.2335    8.3439 C.ar    1  UNL1        0.0550
     29 CL         58.8982   86.8495    8.6479 Cl      1  UNL1       -0.0825
     30 C          64.3305   85.3725   13.3518 C.3     1  UNL1        0.0562
     31 C          63.8527   85.7622   14.7192 C.ar    1  UNL1       -0.0094
     32 C          63.2892   84.7219   15.6414 C.ar    1  UNL1       -0.0025
     33 C          62.8114   85.1115   17.0089 C.ar    1  UNL1        0.0111
     34 C          62.8970   86.5415   17.4541 C.ar    1  UNL1        0.0585
     35 CL         62.4191   86.9311   18.8215 Cl      1  UNL1       -0.0822
     36 C          63.4604   87.5817   16.5318 C.ar    1  UNL1        0.0225
     37 C          63.9382   87.1920   15.1644 C.ar    1  UNL1        0.0546
     38 CL         64.5017   88.2322   14.2422 Cl      1  UNL1       -0.0825
@<TRIPOS>BOND
     1     2     3    1
     2     3     4    1
     3     5     4    1
     4     5     6    1
     5     6     7    1
     6     8     7    1
     7     8     9    1
     8     8    10    1
     9    10    11   am
    10    11    12    2
    11    11     1    1
    12     1    30    1
    13    30    31    1
    14    31    32   ar
    15    32    33   ar
    16    33    34   ar
    17    34    35    1
    18    34    36   ar
    19    36    37   ar
    20    37    38    1
    21     1    15    1
    22    15    16   am
    23    16    17    2
    24    16    19    1
    25    19    22    1
    26    22    23   ar
    27    23    24   ar
    28    24    25   ar
    29    25    26    1
    30    25    27   ar
    31    27    28   ar
    32    28    29    1
    33    19    20    1
    34    20    21    1
    35     9     3    1
    36    37    31   ar
    37    21    19    1
    38    10     5    1
    39    28    22   ar
    40     2    13    1
    41     2    14    1
    42    15    18    1
@<TRIPOS>MOLECULE
*****
 38 42 0 0 0
SMALL
GASTEIGER

@<TRIPOS>ATOM
      1 C          63.3577   84.7944   12.5403 C.3     1  UNL1        0.1532
      2 N          64.0596   84.4285   11.4320 N.3     1  UNL1       -0.3221
      3 C          63.3227   83.3438   12.1600 C.3     1  UNL1        0.0541
      4 C          62.5280   83.6716   13.3892 C.3     1  UNL1        0.0353
      5 C          61.8471   82.4721   14.0034 C.3     1  UNL1        0.0767
      6 C          61.2983   81.1299   14.3871 C.3     1  UNL1        0.0216
      7 C          61.7905   80.1251   13.3880 C.3     1  UNL1        0.0216
      8 C          62.6435   80.8463   12.3868 C.3     1  UNL1        0.0767
      9 C          63.3804   81.9312   11.6588 C.3     1  UNL1        0.0353
     10 N          62.6785   82.2969   12.7672 N.am    1  UNL1       -0.2814
     11 C          63.4154   83.3817   12.0391 C.2     1  UNL1        0.2437
     12 O          64.2101   83.0539   10.8099 O.2     1  UNL1       -0.2731
     13 H          63.9111   85.3187   11.9074 H       1  UNL1        0.1188
     14 H          63.7124   84.4922   10.4750 H       1  UNL1        0.1188
     15 N          62.3263   85.7402   12.0003 N.am    1  UNL1       -0.2978
     16 C          62.2172   85.9664   10.5216 C.2     1  UNL1        0.2257
     17 O          62.9527   85.4319    9.3285 O.2     1  UNL1       -0.2748
     18 H          61.7209   86.2125   12.6165 H       1  UNL1        0.1498
     19 C          61.1858   86.9122    9.9815 C.3     1  UNL1        0.0884
     20 C          59.9719   87.4080    9.2531 C.3     1  UNL1        0.0135
     21 C          60.3019   85.9448    9.2515 C.3     1  UNL1        0.0135
     22 C          61.7115   88.2081   10.5240 C.ar    1  UNL1       -0.0040
     23 C          63.0071   88.7648   10.0125 C.ar    1  UNL1       -0.0021
     24 C          63.5328   90.0607   10.5549 C.ar    1  UNL1        0.0111
     25 C          62.7628   90.8000   11.6089 C.ar    1  UNL1        0.0585
     26 CL         63.2885   92.0959   12.1513 Cl      1  UNL1       -0.0822
     27 C          61.4672   90.2433   12.1203 C.ar    1  UNL1        0.0225
     28 C          60.9416   88.9474   11.5778 C.ar    1  UNL1        0.0550
     29 CL         59.6460   88.3908   12.0893 Cl      1  UNL1       -0.0825
     30 C          64.3313   85.2611   13.5815 C.3     1  UNL1        0.0562
     31 C          64.0499   86.5081   14.3662 C.ar    1  UNL1       -0.0094
     32 C          64.2245   87.8530   13.7252 C.ar    1  UNL1       -0.0025
     33 C          63.9430   89.1000   14.5099 C.ar    1  UNL1        0.0111
     34 C          63.4870   89.0021   15.9356 C.ar    1  UNL1        0.0585
     35 CL         63.2056   90.2492   16.7203 Cl      1  UNL1       -0.0822
     36 C          63.3124   87.6573   16.5766 C.ar    1  UNL1        0.0225
     37 C          63.5938   86.4102   15.7919 C.ar    1  UNL1        0.0546
     38 CL         63.4192   85.0654   16.4328 Cl      1  UNL1       -0.0825
@<TRIPOS>BOND
     1     2     3    1
     2     3     4    1
     3     5     4    1
     4     5     6    1
     5     6     7    1
     6     8     7    1
     7     8     9    1
     8     8    10    1
     9    10    11   am
    10    11    12    2
    11    11     1    1
    12     1    30    1
    13    30    31    1
    14    31    32   ar
    15    32    33   ar
    16    33    34   ar
    17    34    35    1
    18    34    36   ar
    19    36    37   ar
    20    37    38    1
    21     1    15    1
    22    15    16   am
    23    16    17    2
    24    16    19    1
    25    19    22    1
    26    22    23   ar
    27    23    24   ar
    28    24    25   ar
    29    25    26    1
    30    25    27   ar
    31    27    28   ar
    32    28    29    1
    33    19    20    1
    34    20    21    1
    35     9     3    1
    36    37    31   ar
    37    21    19    1
    38    10     5    1
    39    28    22   ar
    40     2    13    1
    41     2    14    1
    42    15    18    1
@<TRIPOS>MOLECULE
*****
 38 42 0 0 0
SMALL
GASTEIGER

@<TRIPOS>ATOM
      1 C          63.8613   84.6475   13.3135 C.3     1  UNL1        0.1532
      2 N          64.8540   84.2542   12.4679 N.3     1  UNL1       -0.3221
      3 C          63.8599   83.2106   12.8831 C.3     1  UNL1        0.0541
      4 C          62.7389   83.5701   13.8126 C.3     1  UNL1        0.0353
      5 C          61.8269   82.4103   14.1326 C.3     1  UNL1        0.0767
      6 C          61.1040   81.1031   14.2698 C.3     1  UNL1        0.0216
      7 C          61.8246   80.0854   13.4362 C.3     1  UNL1        0.0216
      8 C          62.9927   80.7635   12.7838 C.3     1  UNL1        0.0767
      9 C          63.9868   81.8072   12.3687 C.3     1  UNL1        0.0353
     10 N          62.9941   82.2004   13.2142 N.am    1  UNL1       -0.2814
     11 C          63.9882   83.2442   12.7991 C.2     1  UNL1        0.2437
     12 O          65.1093   82.8846   11.8696 O.2     1  UNL1       -0.2731
     13 H          64.6174   85.1434   12.9083 H       1  UNL1        0.1188
     14 H          64.8318   84.3606   11.4537 H       1  UNL1        0.1188
     15 N          63.6871   85.7857   12.3523 N.am    1  UNL1       -0.2978
     16 C          62.4763   85.8428   11.4689 C.2     1  UNL1        0.2257
     17 O          61.2768   84.9606   11.2866 O.2     1  UNL1       -0.2748
     18 H          64.3675   86.4954   12.3012 H       1  UNL1        0.1498
     19 C          62.3020   86.9810   10.5076 C.3     1  UNL1        0.0884
     20 C          62.2372   88.3840    9.9812 C.3     1  UNL1        0.0135
     21 C          62.5566   88.1391   11.4262 C.3     1  UNL1        0.0135
     22 C          61.9868   86.2181    9.2551 C.ar    1  UNL1       -0.0040
     23 C          60.6757   86.4298    8.5578 C.ar    1  UNL1       -0.0021
     24 C          60.3605   85.6669    7.3053 C.ar    1  UNL1        0.0111
     25 C          61.3565   84.6923    6.7501 C.ar    1  UNL1        0.0585
     26 CL         61.0413   83.9294    5.4976 Cl      1  UNL1       -0.0822
     27 C          62.6676   84.4806    7.4475 C.ar    1  UNL1        0.0225
     28 C          62.9827   85.2435    8.6999 C.ar    1  UNL1        0.0550
     29 CL         64.2938   85.0317    9.3971 Cl      1  UNL1       -0.0825
     30 C          63.9086   84.9125   14.7891 C.3     1  UNL1        0.0562
     31 C          63.7868   86.3163   15.3033 C.ar    1  UNL1       -0.0094
     32 C          64.3703   87.4550   14.5202 C.ar    1  UNL1       -0.0025
     33 C          64.2486   88.8589   15.0344 C.ar    1  UNL1        0.0111
     34 C          63.5435   89.1241   16.3316 C.ar    1  UNL1        0.0585
     35 CL         63.4218   90.5280   16.8457 Cl      1  UNL1       -0.0822
     36 C          62.9601   87.9854   17.1146 C.ar    1  UNL1        0.0225
     37 C          63.0818   86.5815   16.6004 C.ar    1  UNL1        0.0546
     38 CL         62.4984   85.4429   17.3834 Cl      1  UNL1       -0.0825
@<TRIPOS>BOND
     1     2     3    1
     2     3     4    1
     3     5     4    1
     4     5     6    1
     5     6     7    1
     6     8     7    1
     7     8     9    1
     8     8    10    1
     9    10    11   am
    10    11    12    2
    11    11     1    1
    12     1    30    1
    13    30    31    1
    14    31    32   ar
    15    32    33   ar
    16    33    34   ar
    17    34    35    1
    18    34    36   ar
    19    36    37   ar
    20    37    38    1
    21     1    15    1
    22    15    16   am
    23    16    17    2
    24    16    19    1
    25    19    22    1
    26    22    23   ar
    27    23    24   ar
    28    24    25   ar
    29    25    26    1
    30    25    27   ar
    31    27    28   ar
    32    28    29    1
    33    19    20    1
    34    20    21    1
    35     9     3    1
    36    37    31   ar
    37    21    19    1
    38    10     5    1
    39    28    22   ar
    40     2    13    1
    41     2    14    1
    42    15    18    1
