@<TRIPOS>MOLECULE
*****
 32 35 0 0 0
SMALL
GASTEIGER

@<TRIPOS>ATOM
      1 C          65.1192   93.5770    9.9346 C.3     1  UNL1        0.1383
      2 N          65.1417   92.8379   11.2397 N.ar    1  UNL1       -0.2455
      3 C          64.4676   91.5030   11.3572 C.ar    1  UNL1        0.2816
      4 O          63.7710   90.9074   10.1698 O.2     1  UNL1       -0.2652
      5 C          64.4900   90.7638   12.6622 C.ar    1  UNL1        0.1342
      6 C          65.1866   91.3595   13.8497 C.ar    1  UNL1        0.0871
      7 C          65.0440   90.4047   14.9978 C.ar    1  UNL1        0.0515
      8 C          64.2594   89.2190   14.5199 C.ar    1  UNL1        0.1142
      9 N          63.9170   89.4410   13.0764 N.ar    1  UNL1       -0.3068
     10 N          65.8607   92.6943   13.7321 N.ar    1  UNL1       -0.2776
     11 C          66.5573   93.2900   14.9196 C.3     1  UNL1        0.1351
     12 C          65.8382   93.4335   12.4270 C.ar    1  UNL1        0.3339
     13 O          66.5123   94.7684   12.3095 O.2     1  UNL1       -0.2462
     14 N          63.8831   88.0216   15.3412 N.pl3   1  UNL1       -0.2931
     15 C          63.0710   88.1941   16.5904 C.3     1  UNL1        0.0922
     16 C          62.6948   86.9965   17.4117 C.3     1  UNL1        0.0229
     17 C          63.1307   85.6266   16.9838 C.3     1  UNL1        0.0190
     18 C          63.9429   85.4541   15.7346 C.3     1  UNL1        0.0709
     19 N          64.3788   84.0842   15.3066 N.3     1  UNL1       -0.3208
     20 C          64.3191   86.6516   14.9133 C.3     1  UNL1        0.1075
     21 H          64.9175   84.1531   14.4432 H       1  UNL1        0.1189
     22 H          63.5578   83.4997   15.1493 H       1  UNL1        0.1189
     23 C          63.1382   88.5044   12.2009 C.3     1  UNL1        0.1348
     24 C          61.9191   88.9938   11.4769 C.ar    1  UNL1        0.0123
     25 C          61.1194   90.1317   12.0388 C.ar    1  UNL1        0.0279
     26 C          59.9002   90.6210   11.3148 C.ar    1  UNL1        0.1399
     27 F          59.1005   91.7589   11.8767 F       1  UNL1       -0.2042
     28 C          59.4807   89.9725   10.0289 C.ar    1  UNL1        0.0303
     29 C          60.2804   88.8347    9.4670 C.ar    1  UNL1        0.0123
     30 C          61.4996   88.3453   10.1910 C.ar    1  UNL1        0.0664
     31 C          62.2993   87.2075    9.6292 C.1     1  UNL1        0.1002
     32 N          63.0990   86.0696    9.0673 N.1     1  UNL1       -0.1908
@<TRIPOS>BOND
     1     1     2    1
     2     2     3   ar
     3     3     4    2
     4     3     5   ar
     5     5     6   ar
     6     6     7   ar
     7     7     8   ar
     8     8    14    1
     9    14    15    1
    10    15    16    1
    11    16    17    1
    12    17    18    1
    13    18    19    1
    14    18    20    1
    15     8     9   ar
    16     9    23    1
    17    23    24    1
    18    24    25   ar
    19    25    26   ar
    20    26    27    1
    21    26    28   ar
    22    28    29   ar
    23    29    30   ar
    24    30    31    1
    25    31    32    3
    26     6    10   ar
    27    10    11    1
    28    10    12   ar
    29    12    13    2
    30    12     2   ar
    31     9     5   ar
    32    30    24   ar
    33    20    14    1
    34    19    21    1
    35    19    22    1
@<TRIPOS>MOLECULE
*****
 32 35 0 0 0
SMALL
GASTEIGER

@<TRIPOS>ATOM
      1 C          64.9085   93.7223    9.9333 C.3     1  UNL1        0.1383
      2 N          65.1296   92.8719   11.1491 N.ar    1  UNL1       -0.2455
      3 C          64.1488   91.7916   11.4971 C.ar    1  UNL1        0.2816
      4 O          62.9471   91.5617   10.6293 O.2     1  UNL1       -0.2652
      5 C          64.3698   90.9413   12.7128 C.ar    1  UNL1        0.1342
      6 C          65.5715   91.1712   13.5806 C.ar    1  UNL1        0.0871
      7 C          65.5257   90.1822   14.7074 C.ar    1  UNL1        0.0515
      8 C          64.2957   89.3410   14.5360 C.ar    1  UNL1        0.1142
      9 N          63.5813   89.8101   13.3033 N.ar    1  UNL1       -0.3068
     10 N          66.5523   92.2515   13.2326 N.ar    1  UNL1       -0.2776
     11 C          67.7540   92.4815   14.1003 C.3     1  UNL1        0.1351
     12 C          66.3312   93.1019   12.0168 C.ar    1  UNL1        0.3339
     13 O          67.3120   94.1822   11.6688 O.2     1  UNL1       -0.2462
     14 N          63.8570   88.2263   15.4388 N.pl3   1  UNL1       -0.2931
     15 C          63.0496   88.5289   16.6662 C.3     1  UNL1        0.0922
     16 C          62.6110   87.4142   17.5690 C.3     1  UNL1        0.0229
     17 C          62.9798   85.9969   17.2445 C.3     1  UNL1        0.0190
     18 C          63.7872   85.6943   16.0171 C.3     1  UNL1        0.0709
     19 N          64.1559   84.2771   15.6924 N.3     1  UNL1       -0.3208
     20 C          64.2258   86.8091   15.1143 C.3     1  UNL1        0.1075
     21 H          64.7007   84.2565   14.8303 H       1  UNL1        0.1189
     22 H          63.3074   83.7241   15.5717 H       1  UNL1        0.1189
     23 C          62.3029   89.2470   12.7570 C.3     1  UNL1        0.1348
     24 C          62.3240   87.9797   11.9549 C.ar    1  UNL1        0.0123
     25 C          63.1135   86.7993   12.4380 C.ar    1  UNL1        0.0279
     26 C          63.1346   85.5320   11.6358 C.ar    1  UNL1        0.1399
     27 F          63.9242   84.3516   12.1189 F       1  UNL1       -0.2042
     28 C          62.3661   85.4450   10.3505 C.ar    1  UNL1        0.0303
     29 C          61.5766   86.6253    9.8674 C.ar    1  UNL1        0.0123
     30 C          61.5555   87.8927   10.6696 C.ar    1  UNL1        0.0664
     31 C          60.7660   89.0730   10.1865 C.1     1  UNL1        0.1002
     32 N          59.9764   90.2533    9.7034 N.1     1  UNL1       -0.1908
@<TRIPOS>BOND
     1     1     2    1
     2     2     3   ar
     3     3     4    2
     4     3     5   ar
     5     5     6   ar
     6     6     7   ar
     7     7     8   ar
     8     8    14    1
     9    14    15    1
    10    15    16    1
    11    16    17    1
    12    17    18    1
    13    18    19    1
    14    18    20    1
    15     8     9   ar
    16     9    23    1
    17    23    24    1
    18    24    25   ar
    19    25    26   ar
    20    26    27    1
    21    26    28   ar
    22    28    29   ar
    23    29    30   ar
    24    30    31    1
    25    31    32    3
    26     6    10   ar
    27    10    11    1
    28    10    12   ar
    29    12    13    2
    30    12     2   ar
    31     9     5   ar
    32    30    24   ar
    33    20    14    1
    34    19    21    1
    35    19    22    1
@<TRIPOS>MOLECULE
*****
 32 35 0 0 0
SMALL
GASTEIGER

@<TRIPOS>ATOM
      1 C          61.1908   85.9782   10.6236 C.3     1  UNL1        0.1383
      2 N          61.8160   87.2901   10.9953 N.ar    1  UNL1       -0.2455
      3 C          62.7920   87.3603   12.1321 C.ar    1  UNL1        0.2816
      4 O          63.1428   86.1187   12.8972 O.2     1  UNL1       -0.2652
      5 C          63.4173   88.6721   12.5039 C.ar    1  UNL1        0.1342
      6 C          63.0665   89.9137   11.7387 C.ar    1  UNL1        0.0871
      7 C          63.8374   91.0563   12.3306 C.ar    1  UNL1        0.0515
      8 C          64.6646   90.5208   13.4616 C.ar    1  UNL1        0.1142
      9 N          64.4049   89.0473   13.5687 N.ar    1  UNL1       -0.3068
     10 N          62.0905   89.8435   10.6019 N.ar    1  UNL1       -0.2776
     11 C          61.7397   91.0851    9.8367 C.3     1  UNL1        0.1351
     12 C          61.4653   88.5316   10.2302 C.ar    1  UNL1        0.3339
     13 O          60.4892   88.4614    9.0933 O.2     1  UNL1       -0.2462
     14 N          65.5891   91.3187   14.3326 N.pl3   1  UNL1       -0.2931
     15 C          65.0744   91.9501   15.5921 C.3     1  UNL1        0.0922
     16 C          65.9990   92.7480   16.4630 C.3     1  UNL1        0.0229
     17 C          67.4382   92.9145   16.0745 C.3     1  UNL1        0.0190
     18 C          67.9529   92.2831   14.8151 C.3     1  UNL1        0.0709
     19 N          69.3920   92.4494   14.4265 N.3     1  UNL1       -0.3208
     20 C          67.0283   91.4851   13.9441 C.3     1  UNL1        0.1075
     21 H          69.5665   91.9581   13.5498 H       1  UNL1        0.1189
     22 H          69.9886   92.0624   15.1577 H       1  UNL1        0.1189
     23 C          65.0242   88.1131   14.5655 C.3     1  UNL1        0.1348
     24 C          64.1561   87.1908   15.3690 C.ar    1  UNL1        0.0123
     25 C          64.2308   85.7089   15.1490 C.ar    1  UNL1        0.0279
     26 C          63.3626   84.7867   15.9525 C.ar    1  UNL1        0.1399
     27 F          63.4373   83.3048   15.7325 F       1  UNL1       -0.2042
     28 C          62.4197   85.3463   16.9762 C.ar    1  UNL1        0.0303
     29 C          62.3450   86.8281   17.1962 C.ar    1  UNL1        0.0123
     30 C          63.2131   87.7505   16.3927 C.ar    1  UNL1        0.0664
     31 C          63.1384   89.2323   16.6127 C.1     1  UNL1        0.1002
     32 N          63.0637   90.7142   16.8328 N.1     1  UNL1       -0.1908
@<TRIPOS>BOND
     1     1     2    1
     2     2     3   ar
     3     3     4    2
     4     3     5   ar
     5     5     6   ar
     6     6     7   ar
     7     7     8   ar
     8     8    14    1
     9    14    15    1
    10    15    16    1
    11    16    17    1
    12    17    18    1
    13    18    19    1
    14    18    20    1
    15     8     9   ar
    16     9    23    1
    17    23    24    1
    18    24    25   ar
    19    25    26   ar
    20    26    27    1
    21    26    28   ar
    22    28    29   ar
    23    29    30   ar
    24    30    31    1
    25    31    32    3
    26     6    10   ar
    27    10    11    1
    28    10    12   ar
    29    12    13    2
    30    12     2   ar
    31     9     5   ar
    32    30    24   ar
    33    20    14    1
    34    19    21    1
    35    19    22    1
@<TRIPOS>MOLECULE
*****
 32 35 0 0 0
SMALL
GASTEIGER

@<TRIPOS>ATOM
      1 C          59.0537   89.9235    7.4332 C.3     1  UNL1        0.1383
      2 N          59.7850   88.8192    8.1376 N.ar    1  UNL1       -0.2455
      3 C          60.3277   89.0407    9.5183 C.ar    1  UNL1        0.2816
      4 O          60.1392   90.3662   10.1946 O.2     1  UNL1       -0.2652
      5 C          61.0590   87.9365   10.2227 C.ar    1  UNL1        0.1342
      6 C          61.2475   86.6110    9.5463 C.ar    1  UNL1        0.0871
      7 C          62.0053   85.7167   10.4822 C.ar    1  UNL1        0.0515
      8 C          62.2851   86.4895   11.7370 C.ar    1  UNL1        0.1142
      9 N          61.7003   87.8614   11.5766 N.ar    1  UNL1       -0.3068
     10 N          60.7048   86.3896    8.1656 N.ar    1  UNL1       -0.2776
     11 C          60.8932   85.0641    7.4892 C.3     1  UNL1        0.1351
     12 C          59.9735   87.4938    7.4613 C.ar    1  UNL1        0.3339
     13 O          59.4307   87.2724    6.0805 O.2     1  UNL1       -0.2462
     14 N          63.0207   85.9799   12.9408 N.pl3   1  UNL1       -0.2931
     15 C          64.0852   86.8208   13.5809 C.3     1  UNL1        0.0922
     16 C          64.8207   86.3111   14.7848 C.3     1  UNL1        0.0229
     17 C          64.4918   84.9605   15.3485 C.3     1  UNL1        0.0190
     18 C          63.4273   84.1196   14.7084 C.3     1  UNL1        0.0709
     19 N          63.0983   82.7691   15.2721 N.3     1  UNL1       -0.3208
     20 C          62.6918   84.6293   13.5046 C.3     1  UNL1        0.1075
     21 H          62.3575   82.3404   14.7173 H       1  UNL1        0.1189
     22 H          62.7848   82.8707   16.2374 H       1  UNL1        0.1189
     23 C          61.7483   88.9646   12.5919 C.3     1  UNL1        0.1348
     24 C          62.8561   89.9750   12.5496 C.ar    1  UNL1        0.0123
     25 C          63.2176   90.6379   11.2534 C.ar    1  UNL1        0.0279
     26 C          64.3253   91.6483   11.2111 C.ar    1  UNL1        0.1399
     27 F          64.6868   92.3111    9.9150 F       1  UNL1       -0.2042
     28 C          65.0717   91.9960   12.4650 C.ar    1  UNL1        0.0303
     29 C          64.7102   91.3332   13.7611 C.ar    1  UNL1        0.0123
     30 C          63.6024   90.3227   13.8035 C.ar    1  UNL1        0.0664
     31 C          63.2410   89.6599   15.0996 C.1     1  UNL1        0.1002
     32 N          62.8795   88.9971   16.3957 N.1     1  UNL1       -0.1908
@<TRIPOS>BOND
     1     1     2    1
     2     2     3   ar
     3     3     4    2
     4     3     5   ar
     5     5     6   ar
     6     6     7   ar
     7     7     8   ar
     8     8    14    1
     9    14    15    1
    10    15    16    1
    11    16    17    1
    12    17    18    1
    13    18    19    1
    14    18    20    1
    15     8     9   ar
    16     9    23    1
    17    23    24    1
    18    24    25   ar
    19    25    26   ar
    20    26    27    1
    21    26    28   ar
    22    28    29   ar
    23    29    30   ar
    24    30    31    1
    25    31    32    3
    26     6    10   ar
    27    10    11    1
    28    10    12   ar
    29    12    13    2
    30    12     2   ar
    31     9     5   ar
    32    30    24   ar
    33    20    14    1
    34    19    21    1
    35    19    22    1
@<TRIPOS>MOLECULE
*****
 32 35 0 0 0
SMALL
GASTEIGER

@<TRIPOS>ATOM
      1 C          62.7971   82.3957   10.6300 C.3     1  UNL1        0.1383
      2 N          63.1339   83.3372   11.7482 N.ar    1  UNL1       -0.2455
      3 C          63.0604   84.8192   11.5286 C.ar    1  UNL1        0.2816
      4 O          62.6500   85.3597   10.1909 O.2     1  UNL1       -0.2652
      5 C          63.3972   85.7607   12.6467 C.ar    1  UNL1        0.1342
      6 C          63.8075   85.2202   13.9844 C.ar    1  UNL1        0.0871
      7 C          64.0789   86.3838   14.8912 C.ar    1  UNL1        0.0515
      8 C          63.8362   87.6435   14.1139 C.ar    1  UNL1        0.1142
      9 N          63.4149   87.2584   12.7267 N.ar    1  UNL1       -0.3068
     10 N          63.8811   83.7382   14.2040 N.ar    1  UNL1       -0.2776
     11 C          64.2914   83.1976   15.5417 C.3     1  UNL1        0.1351
     12 C          63.5442   82.7967   13.0858 C.ar    1  UNL1        0.3339
     13 O          63.6178   81.3146   13.3054 O.2     1  UNL1       -0.2462
     14 N          63.9882   89.0428   14.6326 N.pl3   1  UNL1       -0.2931
     15 C          63.4515   89.4033   15.9861 C.3     1  UNL1        0.0922
     16 C          63.6035   90.8026   16.5048 C.3     1  UNL1        0.0229
     17 C          64.2922   91.8413   15.6700 C.3     1  UNL1        0.0190
     18 C          64.8289   91.4807   14.3165 C.3     1  UNL1        0.0709
     19 N          65.5176   92.5193   13.4817 N.3     1  UNL1       -0.3208
     20 C          64.6769   90.0815   13.7979 C.3     1  UNL1        0.1075
     21 H          65.8161   92.1034   12.5995 H       1  UNL1        0.1189
     22 H          66.3320   92.8735   13.9834 H       1  UNL1        0.1189
     23 C          63.0716   88.2049   11.6148 C.3     1  UNL1        0.1348
     24 C          61.7732   88.9555   11.6429 C.ar    1  UNL1        0.0123
     25 C          60.5128   88.2583   12.0613 C.ar    1  UNL1        0.0279
     26 C          59.2144   89.0089   12.0894 C.ar    1  UNL1        0.1399
     27 F          57.9539   88.3117   12.5079 F       1  UNL1       -0.2042
     28 C          59.1765   90.4568   11.6990 C.ar    1  UNL1        0.0303
     29 C          60.4369   91.1539   11.2805 C.ar    1  UNL1        0.0123
     30 C          61.7353   90.4034   11.2524 C.ar    1  UNL1        0.0664
     31 C          62.9957   91.1005   10.8340 C.1     1  UNL1        0.1002
     32 N          64.2562   91.7977   10.4155 N.1     1  UNL1       -0.1908
@<TRIPOS>BOND
     1     1     2    1
     2     2     3   ar
     3     3     4    2
     4     3     5   ar
     5     5     6   ar
     6     6     7   ar
     7     7     8   ar
     8     8    14    1
     9    14    15    1
    10    15    16    1
    11    16    17    1
    12    17    18    1
    13    18    19    1
    14    18    20    1
    15     8     9   ar
    16     9    23    1
    17    23    24    1
    18    24    25   ar
    19    25    26   ar
    20    26    27    1
    21    26    28   ar
    22    28    29   ar
    23    29    30   ar
    24    30    31    1
    25    31    32    3
    26     6    10   ar
    27    10    11    1
    28    10    12   ar
    29    12    13    2
    30    12     2   ar
    31     9     5   ar
    32    30    24   ar
    33    20    14    1
    34    19    21    1
    35    19    22    1
@<TRIPOS>MOLECULE
*****
 32 35 0 0 0
SMALL
GASTEIGER

@<TRIPOS>ATOM
      1 C          64.1006   90.8701   14.8444 C.3     1  UNL1        0.1383
      2 N          63.7717   89.4601   15.2367 N.ar    1  UNL1       -0.2455
      3 C          63.8187   88.3661   14.2115 C.ar    1  UNL1        0.2816
      4 O          64.1946   88.6822   12.7942 O.2     1  UNL1       -0.2652
      5 C          63.4899   86.9562   14.6037 C.ar    1  UNL1        0.1342
      6 C          63.1140   86.6402   16.0210 C.ar    1  UNL1        0.0871
      7 C          62.8431   85.1676   16.1115 C.ar    1  UNL1        0.0515
      8 C          63.0515   84.5735   14.7500 C.ar    1  UNL1        0.1142
      9 N          63.4513   85.6789   13.8181 N.ar    1  UNL1       -0.3068
     10 N          63.0669   87.7341   17.0462 N.ar    1  UNL1       -0.2776
     11 C          62.6910   87.4182   18.4636 C.3     1  UNL1        0.1351
     12 C          63.3958   89.1441   16.6540 C.ar    1  UNL1        0.3339
     13 O          63.3488   90.2382   17.6792 O.2     1  UNL1       -0.2462
     14 N          62.8888   83.1279   14.3845 N.pl3   1  UNL1       -0.2931
     15 C          64.0654   82.3439   13.8836 C.3     1  UNL1        0.0922
     16 C          63.9026   80.8982   13.5181 C.3     1  UNL1        0.0229
     17 C          62.5633   80.2365   13.6536 C.3     1  UNL1        0.0190
     18 C          61.3867   81.0205   14.1545 C.3     1  UNL1        0.0709
     19 N          60.0473   80.3589   14.2899 N.3     1  UNL1       -0.3208
     20 C          61.5495   82.4662   14.5199 C.3     1  UNL1        0.1075
     21 H          59.3685   81.0343   14.6413 H       1  UNL1        0.1189
     22 H          60.1184   79.5776   14.9418 H       1  UNL1        0.1189
     23 C          63.7585   85.5326   12.3572 C.3     1  UNL1        0.1348
     24 C          62.6954   85.8096   11.3359 C.ar    1  UNL1        0.0123
     25 C          61.7384   86.9467   11.5389 C.ar    1  UNL1        0.0279
     26 C          60.6753   87.2237   10.5176 C.ar    1  UNL1        0.1399
     27 F          59.7183   88.3608   10.7206 F       1  UNL1       -0.2042
     28 C          60.5692   86.3636    9.2932 C.ar    1  UNL1        0.0303
     29 C          61.5261   85.2266    9.0902 C.ar    1  UNL1        0.0123
     30 C          62.5893   84.9495   10.1115 C.ar    1  UNL1        0.0664
     31 C          63.5462   83.8125    9.9085 C.1     1  UNL1        0.1002
     32 N          64.5032   82.6754    9.7055 N.1     1  UNL1       -0.1908
@<TRIPOS>BOND
     1     1     2    1
     2     2     3   ar
     3     3     4    2
     4     3     5   ar
     5     5     6   ar
     6     6     7   ar
     7     7     8   ar
     8     8    14    1
     9    14    15    1
    10    15    16    1
    11    16    17    1
    12    17    18    1
    13    18    19    1
    14    18    20    1
    15     8     9   ar
    16     9    23    1
    17    23    24    1
    18    24    25   ar
    19    25    26   ar
    20    26    27    1
    21    26    28   ar
    22    28    29   ar
    23    29    30   ar
    24    30    31    1
    25    31    32    3
    26     6    10   ar
    27    10    11    1
    28    10    12   ar
    29    12    13    2
    30    12     2   ar
    31     9     5   ar
    32    30    24   ar
    33    20    14    1
    34    19    21    1
    35    19    22    1
@<TRIPOS>MOLECULE
*****
 32 35 0 0 0
SMALL
GASTEIGER

@<TRIPOS>ATOM
      1 C          63.2267   92.2899   10.5633 C.3     1  UNL1        0.1383
      2 N          63.5287   91.1635   11.5069 N.ar    1  UNL1       -0.2455
      3 C          62.8704   89.8292   11.3170 C.ar    1  UNL1        0.2816
      4 O          61.9101   89.6211   10.1837 O.2     1  UNL1       -0.2652
      5 C          63.1725   88.7029   12.2605 C.ar    1  UNL1        0.1342
      6 C          64.1328   88.9109   13.3939 C.ar    1  UNL1        0.0871
      7 C          64.2340   87.6241   14.1579 C.ar    1  UNL1        0.0515
      8 C          63.3361   86.6207   13.4968 C.ar    1  UNL1        0.1142
      9 N          62.6801   87.2874   12.3241 N.ar    1  UNL1       -0.3068
     10 N          64.7911   90.2453   13.5837 N.ar    1  UNL1       -0.2776
     11 C          65.7515   90.4534   14.7171 C.3     1  UNL1        0.1351
     12 C          64.4890   91.3716   12.6402 C.ar    1  UNL1        0.3339
     13 O          65.1474   92.7061   12.8300 O.2     1  UNL1       -0.2462
     14 N          63.1304   85.2000   13.9319 N.pl3   1  UNL1       -0.2931
     15 C          62.2747   84.8978   15.1262 C.3     1  UNL1        0.0922
     16 C          62.0690   83.4771   15.5613 C.3     1  UNL1        0.0229
     17 C          62.7191   82.3586   14.8021 C.3     1  UNL1        0.0190
     18 C          63.5748   82.6608   13.6078 C.3     1  UNL1        0.0709
     19 N          64.2249   81.5423   12.8485 N.3     1  UNL1       -0.3208
     20 C          63.7805   84.0815   13.1727 C.3     1  UNL1        0.1075
     21 H          64.7651   81.9266   12.0733 H       1  UNL1        0.1189
     22 H          63.5068   80.9158   12.4849 H       1  UNL1        0.1189
     23 C          61.7032   86.6505   11.3808 C.3     1  UNL1        0.1348
     24 C          62.2004   85.8429   10.2186 C.ar    1  UNL1        0.0123
     25 C          63.2093   84.7549   10.4383 C.ar    1  UNL1        0.0279
     26 C          63.7066   83.9473    9.2762 C.ar    1  UNL1        0.1399
     27 F          64.7155   82.8593    9.4958 F       1  UNL1       -0.2042
     28 C          63.1949   84.2279    7.8942 C.ar    1  UNL1        0.0303
     29 C          62.1861   85.3159    7.6746 C.ar    1  UNL1        0.0123
     30 C          61.6888   86.1235    8.8367 C.ar    1  UNL1        0.0664
     31 C          60.6799   87.2115    8.6170 C.1     1  UNL1        0.1002
     32 N          59.6710   88.2995    8.3974 N.1     1  UNL1       -0.1908
@<TRIPOS>BOND
     1     1     2    1
     2     2     3   ar
     3     3     4    2
     4     3     5   ar
     5     5     6   ar
     6     6     7   ar
     7     7     8   ar
     8     8    14    1
     9    14    15    1
    10    15    16    1
    11    16    17    1
    12    17    18    1
    13    18    19    1
    14    18    20    1
    15     8     9   ar
    16     9    23    1
    17    23    24    1
    18    24    25   ar
    19    25    26   ar
    20    26    27    1
    21    26    28   ar
    22    28    29   ar
    23    29    30   ar
    24    30    31    1
    25    31    32    3
    26     6    10   ar
    27    10    11    1
    28    10    12   ar
    29    12    13    2
    30    12     2   ar
    31     9     5   ar
    32    30    24   ar
    33    20    14    1
    34    19    21    1
    35    19    22    1
@<TRIPOS>MOLECULE
*****
 32 35 0 0 0
SMALL
GASTEIGER

@<TRIPOS>ATOM
      1 C          64.6231   85.9648   16.3687 C.3     1  UNL1        0.1383
      2 N          64.0384   85.4041   15.1062 N.ar    1  UNL1       -0.2455
      3 C          63.6626   86.3225   13.9813 C.ar    1  UNL1        0.2816
      4 O          63.8714   87.8015   14.1190 O.2     1  UNL1       -0.2652
      5 C          63.0780   85.7619   12.7188 C.ar    1  UNL1        0.1342
      6 C          62.8692   84.2829   12.5812 C.ar    1  UNL1        0.0871
      7 C          62.2773   84.0222   11.2278 C.ar    1  UNL1        0.0515
      8 C          62.1203   85.3402   10.5290 C.ar    1  UNL1        0.1142
      9 N          62.6151   86.4153   11.4505 N.ar    1  UNL1       -0.3068
     10 N          63.2450   83.3645   13.7060 N.ar    1  UNL1       -0.2776
     11 C          63.0363   81.8854   13.5685 C.3     1  UNL1        0.1351
     12 C          63.8297   83.9252   14.9686 C.ar    1  UNL1        0.3339
     13 O          64.2055   83.0067   16.0935 O.2     1  UNL1       -0.2462
     14 N          61.5658   85.5467    9.1506 N.pl3   1  UNL1       -0.2931
     15 C          62.2604   84.9455    7.9649 C.3     1  UNL1        0.0922
     16 C          61.7057   85.1521    6.5865 C.3     1  UNL1        0.0229
     17 C          60.4566   85.9599    6.3939 C.3     1  UNL1        0.0190
     18 C          59.7620   86.5612    7.5797 C.3     1  UNL1        0.0709
     19 N          58.5129   87.3690    7.3872 N.3     1  UNL1       -0.3208
     20 C          60.3166   86.3546    8.9580 C.3     1  UNL1        0.1075
     21 H          58.1780   87.6982    8.2927 H       1  UNL1        0.1189
     22 H          57.7968   86.7889    6.9502 H       1  UNL1        0.1189
     23 C          62.6423   87.8858   11.1554 C.3     1  UNL1        0.1348
     24 C          61.4208   88.7220   11.3975 C.ar    1  UNL1        0.0123
     25 C          60.1765   88.0904   11.9478 C.ar    1  UNL1        0.0279
     26 C          58.9550   88.9266   12.1899 C.ar    1  UNL1        0.1399
     27 F          57.7107   88.2950   12.7402 F       1  UNL1       -0.2042
     28 C          58.9777   90.3945   11.8817 C.ar    1  UNL1        0.0303
     29 C          60.2219   91.0260   11.3315 C.ar    1  UNL1        0.0123
     30 C          61.4435   90.1899   11.0893 C.ar    1  UNL1        0.0664
     31 C          62.6877   90.8214   10.5390 C.1     1  UNL1        0.1002
     32 N          63.9320   91.4530    9.9887 N.1     1  UNL1       -0.1908
@<TRIPOS>BOND
     1     1     2    1
     2     2     3   ar
     3     3     4    2
     4     3     5   ar
     5     5     6   ar
     6     6     7   ar
     7     7     8   ar
     8     8    14    1
     9    14    15    1
    10    15    16    1
    11    16    17    1
    12    17    18    1
    13    18    19    1
    14    18    20    1
    15     8     9   ar
    16     9    23    1
    17    23    24    1
    18    24    25   ar
    19    25    26   ar
    20    26    27    1
    21    26    28   ar
    22    28    29   ar
    23    29    30   ar
    24    30    31    1
    25    31    32    3
    26     6    10   ar
    27    10    11    1
    28    10    12   ar
    29    12    13    2
    30    12     2   ar
    31     9     5   ar
    32    30    24   ar
    33    20    14    1
    34    19    21    1
    35    19    22    1
@<TRIPOS>MOLECULE
*****
 32 35 0 0 0
SMALL
GASTEIGER

@<TRIPOS>ATOM
      1 C          62.7591   80.7757   11.4227 C.3     1  UNL1        0.1383
      2 N          62.8133   82.1184   12.0892 N.ar    1  UNL1       -0.2455
      3 C          62.9952   83.3582   11.2647 C.ar    1  UNL1        0.2816
      4 O          63.1230   83.2552    9.7737 O.2     1  UNL1       -0.2652
      5 C          63.0493   84.7009   11.9311 C.ar    1  UNL1        0.1342
      6 C          62.9216   84.8039   13.4221 C.ar    1  UNL1        0.0871
      7 C          63.0117   86.2537   13.7960 C.ar    1  UNL1        0.0515
      8 C          63.1952   87.0468   12.5361 C.ar    1  UNL1        0.1142
      9 N          63.2184   86.0871   11.3835 N.ar    1  UNL1       -0.3068
     10 N          62.7396   83.5642   14.2467 N.ar    1  UNL1       -0.2776
     11 C          62.6118   83.6671   15.7377 C.3     1  UNL1        0.1351
     12 C          62.6855   82.2214   13.5801 C.ar    1  UNL1        0.3339
     13 O          62.5036   80.9816   14.4048 O.2     1  UNL1       -0.2462
     14 N          63.3315   88.5378   12.4448 N.pl3   1  UNL1       -0.2931
     15 C          62.9019   89.2553   11.1996 C.3     1  UNL1        0.0922
     16 C          63.0382   90.7464   11.1083 C.3     1  UNL1        0.0229
     17 C          63.6041   91.5198   12.2622 C.3     1  UNL1        0.0190
     18 C          64.0337   90.8023   13.5074 C.3     1  UNL1        0.0709
     19 N          64.5996   91.5757   14.6613 N.3     1  UNL1       -0.3208
     20 C          63.8974   89.3113   13.5987 C.3     1  UNL1        0.1075
     21 H          64.8364   90.9335   15.4176 H       1  UNL1        0.1189
     22 H          63.9081   92.2490   14.9911 H       1  UNL1        0.1189
     23 C          63.3821   86.4499    9.9373 C.3     1  UNL1        0.1348
     24 C          62.3440   86.0340    8.9376 C.ar    1  UNL1        0.0123
     25 C          62.7433   85.2452    7.7258 C.ar    1  UNL1        0.0279
     26 C          61.7053   84.8293    6.7261 C.ar    1  UNL1        0.1399
     27 F          62.1046   84.0405    5.5143 F       1  UNL1       -0.2042
     28 C          60.2678   85.2020    6.9382 C.ar    1  UNL1        0.0303
     29 C          59.8686   85.9907    8.1500 C.ar    1  UNL1        0.0123
     30 C          60.9066   86.4067    9.1497 C.ar    1  UNL1        0.0664
     31 C          60.5073   87.1954   10.3615 C.1     1  UNL1        0.1002
     32 N          60.1080   87.9842   11.5733 N.1     1  UNL1       -0.1908
@<TRIPOS>BOND
     1     1     2    1
     2     2     3   ar
     3     3     4    2
     4     3     5   ar
     5     5     6   ar
     6     6     7   ar
     7     7     8   ar
     8     8    14    1
     9    14    15    1
    10    15    16    1
    11    16    17    1
    12    17    18    1
    13    18    19    1
    14    18    20    1
    15     8     9   ar
    16     9    23    1
    17    23    24    1
    18    24    25   ar
    19    25    26   ar
    20    26    27    1
    21    26    28   ar
    22    28    29   ar
    23    29    30   ar
    24    30    31    1
    25    31    32    3
    26     6    10   ar
    27    10    11    1
    28    10    12   ar
    29    12    13    2
    30    12     2   ar
    31     9     5   ar
    32    30    24   ar
    33    20    14    1
    34    19    21    1
    35    19    22    1
