@<TRIPOS>MOLECULE
*****
 22 24 0 0 0
SMALL
GASTEIGER

@<TRIPOS>ATOM
      1 C          63.1200   88.5417   12.2751 C.ar    1  UNL1        0.0872
      2 C          62.2096   88.7085   11.0947 C.ar    1  UNL1        0.0508
      3 C          61.5753   87.5060   10.4609 C.ar    1  UNL1        0.1346
      4 N          61.8513   86.1367   11.0075 N.ar    1  UNL1       -0.2119
      5 C          62.7617   85.9699   12.1879 C.ar    1  UNL1        0.1633
      6 N          63.3960   87.1724   12.8217 N.ar    1  UNL1       -0.2290
      7 C          63.0377   84.6006   12.7346 C.ar    1  UNL1        0.0358
      8 C          62.7640   83.3884   11.8945 C.ar    1  UNL1        0.0030
      9 C          63.0400   82.0191   12.4412 C.ar    1  UNL1        0.0001
     10 C          63.5899   81.8620   13.8279 C.ar    1  UNL1        0.0000
     11 C          63.8636   83.0742   14.6680 C.ar    1  UNL1        0.0001
     12 C          63.5875   84.4435   14.1213 C.ar    1  UNL1        0.0030
     13 N          60.6649   87.6729    9.2805 N.pl3   1  UNL1       -0.2932
     14 C          59.9939   86.5669    8.5212 C.3     1  UNL1        0.0922
     15 C          59.1800   87.1855    7.4236 C.3     1  UNL1        0.0232
     16 C          59.3480   88.6740    7.5044 C.3     1  UNL1        0.0232
     17 C          60.2657   88.9751    8.6520 C.3     1  UNL1        0.0922
     18 C          63.7543   89.7441   12.9089 C.3     1  UNL1        0.1963
     19 C          63.6025   90.1292   15.8802 C.3     1  UNL1        0.1765
     20 S          63.6784   89.9367   14.3945 S.O2    1  UNL1       -0.0025
     21 O          62.1832   89.8365   14.3312 O.2     1  UNL1       -0.1726
     22 O          65.1737   90.0369   14.4579 O.2     1  UNL1       -0.1726
@<TRIPOS>BOND
     1    19    20    1
     2    20    21    2
     3    20    22    2
     4    20    18    1
     5    18     1    1
     6     1     2   ar
     7     2     3   ar
     8     3    13    1
     9    13    14    1
    10    14    15    1
    11    15    16    1
    12    16    17    1
    13     3     4   ar
    14     4     5   ar
    15     5     7    1
    16     7     8   ar
    17     8     9   ar
    18     9    10   ar
    19    10    11   ar
    20    11    12   ar
    21     5     6   ar
    22     6     1   ar
    23    17    13    1
    24    12     7   ar
@<TRIPOS>MOLECULE
*****
 22 24 0 0 0
SMALL
GASTEIGER

@<TRIPOS>ATOM
      1 C          62.5014   85.6980   12.0968 C.ar    1  UNL1        0.0872
      2 C          61.6045   85.9243   10.9159 C.ar    1  UNL1        0.0508
      3 C          61.4174   87.3091   10.3707 C.ar    1  UNL1        0.1346
      4 N          62.1272   88.4676   11.0063 N.ar    1  UNL1       -0.2119
      5 C          63.0241   88.2413   12.1871 C.ar    1  UNL1        0.1633
      6 N          63.2111   86.8565   12.7324 N.ar    1  UNL1       -0.2290
      7 C          63.7339   89.3999   12.8228 C.ar    1  UNL1        0.0358
      8 C          64.3289   89.2551   14.1920 C.ar    1  UNL1        0.0030
      9 C          65.0388   90.4137   14.8277 C.ar    1  UNL1        0.0001
     10 C          65.1535   91.7170   14.0940 C.ar    1  UNL1        0.0000
     11 C          64.5584   91.8617   12.7247 C.ar    1  UNL1        0.0001
     12 C          63.8486   90.7032   12.0891 C.ar    1  UNL1        0.0030
     13 N          60.5205   87.5354    9.1898 N.pl3   1  UNL1       -0.2932
     14 C          59.8142   86.4718    8.4025 C.3     1  UNL1        0.0922
     15 C          59.0296   87.1441    7.3151 C.3     1  UNL1        0.0232
     16 C          59.2511   88.6232    7.4302 C.3     1  UNL1        0.0232
     17 C          60.1726   88.8650    8.5889 C.3     1  UNL1        0.0922
     18 C          62.6885   84.3132   12.6420 C.3     1  UNL1        0.1963
     19 C          63.9995   83.9164   15.3111 C.3     1  UNL1        0.1765
     20 S          63.3440   84.1148   13.9765 S.O2    1  UNL1       -0.0025
     21 O          62.0620   84.4857   14.6613 O.2     1  UNL1       -0.1726
     22 O          64.6259   83.7439   13.2917 O.2     1  UNL1       -0.1726
@<TRIPOS>BOND
     1    19    20    1
     2    20    21    2
     3    20    22    2
     4    20    18    1
     5    18     1    1
     6     1     2   ar
     7     2     3   ar
     8     3    13    1
     9    13    14    1
    10    14    15    1
    11    15    16    1
    12    16    17    1
    13     3     4   ar
    14     4     5   ar
    15     5     7    1
    16     7     8   ar
    17     8     9   ar
    18     9    10   ar
    19    10    11   ar
    20    11    12   ar
    21     5     6   ar
    22     6     1   ar
    23    17    13    1
    24    12     7   ar
@<TRIPOS>MOLECULE
*****
 22 24 0 0 0
SMALL
GASTEIGER

@<TRIPOS>ATOM
      1 C          63.7048   86.5458   13.5913 C.ar    1  UNL1        0.0872
      2 C          63.6128   85.0548   13.7260 C.ar    1  UNL1        0.0508
      3 C          62.7901   84.2631   12.7532 C.ar    1  UNL1        0.1346
      4 N          62.0593   84.9625   11.6457 N.ar    1  UNL1       -0.2119
      5 C          62.1513   86.4536   11.5109 C.ar    1  UNL1        0.1633
      6 N          62.9740   87.2452   12.4837 N.ar    1  UNL1       -0.2290
      7 C          61.4205   87.1531   10.4033 C.ar    1  UNL1        0.0358
      8 C          60.7985   86.3565    9.2949 C.ar    1  UNL1        0.0030
      9 C          60.0677   87.0560    8.1873 C.ar    1  UNL1        0.0001
     10 C          59.9590   88.5520    8.1881 C.ar    1  UNL1        0.0000
     11 C          60.5810   89.3486    9.2965 C.ar    1  UNL1        0.0001
     12 C          61.3118   88.6491   10.4041 C.ar    1  UNL1        0.0030
     13 N          62.6981   82.7720   12.8881 N.pl3   1  UNL1       -0.2932
     14 C          62.9701   81.7703   11.8052 C.3     1  UNL1        0.0922
     15 C          62.7581   80.4000   12.3773 C.3     1  UNL1        0.0232
     16 C          62.3550   80.5548   13.8139 C.3     1  UNL1        0.0232
     17 C          62.3179   82.0207   14.1295 C.3     1  UNL1        0.0922
     18 C          64.5275   87.3375   14.5641 C.3     1  UNL1        0.1963
     19 C          63.3335   89.7130   15.9537 C.3     1  UNL1        0.1765
     20 S          63.9305   88.5253   15.2589 S.O2    1  UNL1       -0.0025
     21 O          63.2279   87.6109   16.2182 O.2     1  UNL1       -0.1726
     22 O          64.6332   89.4396   14.2996 O.2     1  UNL1       -0.1726
@<TRIPOS>BOND
     1    19    20    1
     2    20    21    2
     3    20    22    2
     4    20    18    1
     5    18     1    1
     6     1     2   ar
     7     2     3   ar
     8     3    13    1
     9    13    14    1
    10    14    15    1
    11    15    16    1
    12    16    17    1
    13     3     4   ar
    14     4     5   ar
    15     5     7    1
    16     7     8   ar
    17     8     9   ar
    18     9    10   ar
    19    10    11   ar
    20    11    12   ar
    21     5     6   ar
    22     6     1   ar
    23    17    13    1
    24    12     7   ar
@<TRIPOS>MOLECULE
*****
 22 24 0 0 0
SMALL
GASTEIGER

@<TRIPOS>ATOM
      1 C          64.0106   86.1445   14.0139 C.ar    1  UNL1        0.0872
      2 C          64.4520   87.4221   14.6640 C.ar    1  UNL1        0.0508
      3 C          64.0596   88.7415   14.0680 C.ar    1  UNL1        0.1346
      4 N          63.2257   88.7833   12.8219 N.ar    1  UNL1       -0.2119
      5 C          62.7843   87.5057   12.1718 C.ar    1  UNL1        0.1633
      6 N          63.1767   86.1863   12.7677 N.ar    1  UNL1       -0.2290
      7 C          61.9504   87.5474   10.9256 C.ar    1  UNL1        0.0358
      8 C          61.5378   86.2701   10.2561 C.ar    1  UNL1        0.0030
      9 C          60.7039   86.3118    9.0099 C.ar    1  UNL1        0.0001
     10 C          60.2826   87.6309    8.4332 C.ar    1  UNL1        0.0000
     11 C          60.6952   88.9083    9.1028 C.ar    1  UNL1        0.0001
     12 C          61.5291   88.8665   10.3489 C.ar    1  UNL1        0.0030
     13 N          64.5011   90.0192   14.7182 N.pl3   1  UNL1       -0.2932
     14 C          65.6849   90.8489   14.3181 C.3     1  UNL1        0.0922
     15 C          65.7517   92.0340   15.2353 C.3     1  UNL1        0.0232
     16 C          64.6092   91.9366   16.2024 C.3     1  UNL1        0.0232
     17 C          63.8363   90.6914   15.8828 C.3     1  UNL1        0.0922
     18 C          64.4030   84.8251   14.6098 C.3     1  UNL1        0.1963
     19 C          62.4650   82.5351   14.5917 C.3     1  UNL1        0.1765
     20 S          63.4340   83.6802   14.6008 S.O2    1  UNL1       -0.0025
     21 O          64.2616   82.9880   13.5588 O.2     1  UNL1       -0.1726
     22 O          62.6064   84.3724   15.6428 O.2     1  UNL1       -0.1726
@<TRIPOS>BOND
     1    19    20    1
     2    20    21    2
     3    20    22    2
     4    20    18    1
     5    18     1    1
     6     1     2   ar
     7     2     3   ar
     8     3    13    1
     9    13    14    1
    10    14    15    1
    11    15    16    1
    12    16    17    1
    13     3     4   ar
    14     4     5   ar
    15     5     7    1
    16     7     8   ar
    17     8     9   ar
    18     9    10   ar
    19    10    11   ar
    20    11    12   ar
    21     5     6   ar
    22     6     1   ar
    23    17    13    1
    24    12     7   ar
@<TRIPOS>MOLECULE
*****
 22 24 0 0 0
SMALL
GASTEIGER

@<TRIPOS>ATOM
      1 C          65.6245   92.1307   13.8206 C.ar    1  UNL1        0.0872
      2 C          64.6151   91.1536   13.2951 C.ar    1  UNL1        0.0508
      3 C          64.1566   91.2425   11.8697 C.ar    1  UNL1        0.1346
      4 N          64.7076   92.3086   10.9698 N.ar    1  UNL1       -0.2119
      5 C          65.7170   93.2857   11.4953 C.ar    1  UNL1        0.1633
      6 N          66.1755   93.1968   12.9207 N.ar    1  UNL1       -0.2290
      7 C          66.2679   94.3519   10.5953 C.ar    1  UNL1        0.0358
      8 C          67.1816   93.9809    9.4650 C.ar    1  UNL1        0.0030
      9 C          67.7325   95.0470    8.5651 C.ar    1  UNL1        0.0001
     10 C          67.3698   96.4842    8.7955 C.ar    1  UNL1        0.0000
     11 C          66.4562   96.8551    9.9259 C.ar    1  UNL1        0.0001
     12 C          65.9052   95.7890   10.8258 C.ar    1  UNL1        0.0030
     13 N          63.1472   90.2652   11.3442 N.pl3   1  UNL1       -0.2932
     14 C          62.2501   90.4750   10.1605 C.3     1  UNL1        0.0922
     15 C          61.4061   89.2461    9.9949 C.3     1  UNL1        0.0232
     16 C          61.7816   88.2768   11.0763 C.3     1  UNL1        0.0232
     17 C          62.8576   88.9066   11.9102 C.3     1  UNL1        0.0922
     18 C          66.0830   92.0418   15.2461 C.3     1  UNL1        0.1963
     19 C          68.9439   92.6193   15.9404 C.3     1  UNL1        0.1765
     20 S          67.5134   92.3306   15.5932 S.O2    1  UNL1       -0.0025
     21 O          67.9542   91.1870   14.7285 O.2     1  UNL1       -0.1726
     22 O          67.0726   93.4742   16.4580 O.2     1  UNL1       -0.1726
@<TRIPOS>BOND
     1    19    20    1
     2    20    21    2
     3    20    22    2
     4    20    18    1
     5    18     1    1
     6     1     2   ar
     7     2     3   ar
     8     3    13    1
     9    13    14    1
    10    14    15    1
    11    15    16    1
    12    16    17    1
    13     3     4   ar
    14     4     5   ar
    15     5     7    1
    16     7     8   ar
    17     8     9   ar
    18     9    10   ar
    19    10    11   ar
    20    11    12   ar
    21     5     6   ar
    22     6     1   ar
    23    17    13    1
    24    12     7   ar
@<TRIPOS>MOLECULE
*****
 22 24 0 0 0
SMALL
GASTEIGER

@<TRIPOS>ATOM
      1 C          64.5631   91.2905   13.5363 C.ar    1  UNL1        0.0872
      2 C          63.4891   90.5154   12.8321 C.ar    1  UNL1        0.0508
      3 C          63.2566   90.7195   11.3644 C.ar    1  UNL1        0.1346
      4 N          64.0981   91.6986   10.6007 N.ar    1  UNL1       -0.2119
      5 C          65.1721   92.4736   11.3049 C.ar    1  UNL1        0.1633
      6 N          65.4046   92.2695   12.7726 N.ar    1  UNL1       -0.2290
      7 C          66.0137   93.4527   10.5412 C.ar    1  UNL1        0.0358
      8 C          65.6275   94.9015   10.4999 C.ar    1  UNL1        0.0030
      9 C          66.4691   95.8807    9.7363 C.ar    1  UNL1        0.0001
     10 C          67.6969   95.4109    9.0140 C.ar    1  UNL1        0.0000
     11 C          68.0831   93.9620    9.0553 C.ar    1  UNL1        0.0001
     12 C          67.2416   92.9830    9.8189 C.ar    1  UNL1        0.0030
     13 N          62.1826   89.9444   10.6603 N.pl3   1  UNL1       -0.2932
     14 C          62.3370   88.5874   10.0401 C.3     1  UNL1        0.0922
     15 C          61.0154   88.1946    9.4493 C.3     1  UNL1        0.0232
     16 C          60.0441   89.3089    9.7043 C.3     1  UNL1        0.0232
     17 C          60.7655   90.3903   10.4527 C.3     1  UNL1        0.0922
     18 C          64.7956   91.0864   15.0040 C.3     1  UNL1        0.1963
     19 C          62.9462   89.3322   16.5861 C.3     1  UNL1        0.1765
     20 S          63.8709   90.2093   15.7950 S.O2    1  UNL1       -0.0025
     21 O          63.2996   91.4206   16.4704 O.2     1  UNL1       -0.1726
     22 O          64.4423   88.9979   15.1196 O.2     1  UNL1       -0.1726
@<TRIPOS>BOND
     1    19    20    1
     2    20    21    2
     3    20    22    2
     4    20    18    1
     5    18     1    1
     6     1     2   ar
     7     2     3   ar
     8     3    13    1
     9    13    14    1
    10    14    15    1
    11    15    16    1
    12    16    17    1
    13     3     4   ar
    14     4     5   ar
    15     5     7    1
    16     7     8   ar
    17     8     9   ar
    18     9    10   ar
    19    10    11   ar
    20    11    12   ar
    21     5     6   ar
    22     6     1   ar
    23    17    13    1
    24    12     7   ar
@<TRIPOS>MOLECULE
*****
 22 24 0 0 0
SMALL
GASTEIGER

@<TRIPOS>ATOM
      1 C          61.2481   87.3060   10.5271 C.ar    1  UNL1        0.0872
      2 C          61.9876   88.4387   11.1753 C.ar    1  UNL1        0.0508
      3 C          62.9574   88.1632   12.2859 C.ar    1  UNL1        0.1346
      4 N          63.1879   86.7551   12.7483 N.ar    1  UNL1       -0.2119
      5 C          62.4485   85.6224   12.1001 C.ar    1  UNL1        0.1633
      6 N          61.4786   85.8979   10.9895 N.ar    1  UNL1       -0.2290
      7 C          62.6789   84.2141   12.5626 C.ar    1  UNL1        0.0358
      8 C          62.8858   83.1193   11.5583 C.ar    1  UNL1        0.0030
      9 C          63.1163   81.7111   12.0207 C.ar    1  UNL1        0.0001
     10 C          63.1398   81.3976   13.4874 C.ar    1  UNL1        0.0000
     11 C          62.9328   82.4925   14.4917 C.ar    1  UNL1        0.0001
     12 C          62.7024   83.9007   14.0293 C.ar    1  UNL1        0.0030
     13 N          63.6969   89.2960   12.9341 N.pl3   1  UNL1       -0.2932
     14 C          63.8489   90.6815   12.3798 C.3     1  UNL1        0.0922
     15 C          64.6600   91.4839   13.3536 C.3     1  UNL1        0.0232
     16 C          65.0094   90.5943   14.5097 C.3     1  UNL1        0.0232
     17 C          64.4141   89.2421   14.2505 C.3     1  UNL1        0.0922
     18 C          60.2783   87.5815    9.4165 C.3     1  UNL1        0.1963
     19 C          60.0416   85.6638    7.1216 C.3     1  UNL1        0.1765
     20 S          60.1599   86.6227    8.2691 S.O2    1  UNL1       -0.0025
     21 O          61.6444   86.4091    8.2944 O.2     1  UNL1       -0.1726
     22 O          58.6754   86.8362    8.2438 O.2     1  UNL1       -0.1726
@<TRIPOS>BOND
     1    19    20    1
     2    20    21    2
     3    20    22    2
     4    20    18    1
     5    18     1    1
     6     1     2   ar
     7     2     3   ar
     8     3    13    1
     9    13    14    1
    10    14    15    1
    11    15    16    1
    12    16    17    1
    13     3     4   ar
    14     4     5   ar
    15     5     7    1
    16     7     8   ar
    17     8     9   ar
    18     9    10   ar
    19    10    11   ar
    20    11    12   ar
    21     5     6   ar
    22     6     1   ar
    23    17    13    1
    24    12     7   ar
@<TRIPOS>MOLECULE
*****
 22 24 0 0 0
SMALL
GASTEIGER

@<TRIPOS>ATOM
      1 C          63.4430   88.8418   12.7232 C.ar    1  UNL1        0.0872
      2 C          63.7617   87.5309   13.3790 C.ar    1  UNL1        0.0508
      3 C          63.1893   86.2583   12.8287 C.ar    1  UNL1        0.1346
      4 N          62.2983   86.2965   11.6227 N.ar    1  UNL1       -0.2119
      5 C          61.9796   87.6073   10.9669 C.ar    1  UNL1        0.1633
      6 N          62.5519   88.8799   11.5172 N.ar    1  UNL1       -0.2290
      7 C          61.0885   87.6455    9.7608 C.ar    1  UNL1        0.0358
      8 C          60.6467   86.3664    9.1139 C.ar    1  UNL1        0.0030
      9 C          59.7557   86.4046    7.9078 C.ar    1  UNL1        0.0001
     10 C          59.3064   87.7220    7.3487 C.ar    1  UNL1        0.0000
     11 C          59.7482   89.0012    7.9957 C.ar    1  UNL1        0.0001
     12 C          60.6393   88.9629    9.2017 C.ar    1  UNL1        0.0030
     13 N          63.5081   84.9474   13.4846 N.pl3   1  UNL1       -0.2932
     14 C          64.0405   84.7634   14.8748 C.3     1  UNL1        0.0922
     15 C          64.2118   83.2927   15.1147 C.3     1  UNL1        0.0232
     16 C          63.7853   82.5676   13.8727 C.3     1  UNL1        0.0232
     17 C          63.3503   83.5903   12.8653 C.3     1  UNL1        0.0922
     18 C          64.0153   90.1144   13.2735 C.3     1  UNL1        0.1963
     19 C          63.7518   90.7372   16.1963 C.3     1  UNL1        0.1765
     20 S          63.8836   90.4258   14.7348 S.O2    1  UNL1       -0.0025
     21 O          62.4512   89.9820   14.7002 O.2     1  UNL1       -0.1726
     22 O          65.3160   90.8696   14.7694 O.2     1  UNL1       -0.1726
@<TRIPOS>BOND
     1    19    20    1
     2    20    21    2
     3    20    22    2
     4    20    18    1
     5    18     1    1
     6     1     2   ar
     7     2     3   ar
     8     3    13    1
     9    13    14    1
    10    14    15    1
    11    15    16    1
    12    16    17    1
    13     3     4   ar
    14     4     5   ar
    15     5     7    1
    16     7     8   ar
    17     8     9   ar
    18     9    10   ar
    19    10    11   ar
    20    11    12   ar
    21     5     6   ar
    22     6     1   ar
    23    17    13    1
    24    12     7   ar
@<TRIPOS>MOLECULE
*****
 22 24 0 0 0
SMALL
GASTEIGER

@<TRIPOS>ATOM
      1 C          63.5274   85.3342   13.3080 C.ar    1  UNL1        0.0872
      2 C          63.9262   86.6907   13.8086 C.ar    1  UNL1        0.0508
      3 C          63.5718   87.9157   13.0188 C.ar    1  UNL1        0.1346
      4 N          62.8186   87.7841   11.7283 N.ar    1  UNL1       -0.2119
      5 C          62.4198   86.4276   11.2276 C.ar    1  UNL1        0.1633
      6 N          62.7743   85.2026   12.0175 N.ar    1  UNL1       -0.2290
      7 C          61.6666   86.2959    9.9371 C.ar    1  UNL1        0.0358
      8 C          60.2899   86.8774    9.8096 C.ar    1  UNL1        0.0030
      9 C          59.5367   86.7458    8.5190 C.ar    1  UNL1        0.0001
     10 C          60.1603   86.0326    7.3561 C.ar    1  UNL1        0.0000
     11 C          61.5371   85.4510    7.4837 C.ar    1  UNL1        0.0001
     12 C          62.2903   85.5827    8.7742 C.ar    1  UNL1        0.0030
     13 N          63.9706   89.2723   13.5195 N.pl3   1  UNL1       -0.2932
     14 C          64.5932   89.5729   14.8506 C.3     1  UNL1        0.0922
     15 C          64.8242   91.0528   14.9307 C.3     1  UNL1        0.0232
     16 C          64.3443   91.6670   13.6490 C.3     1  UNL1        0.0232
     17 C          63.8167   90.5665   12.7769 C.3     1  UNL1        0.0922
     18 C          63.8818   84.1092   14.0978 C.3     1  UNL1        0.1963
     19 C          61.9229   81.8477   14.3181 C.3     1  UNL1        0.1765
     20 S          62.9024   82.9785   14.2080 S.O2    1  UNL1       -0.0025
     21 O          62.0360   83.8160   15.1011 O.2     1  UNL1       -0.1726
     22 O          63.7689   82.1410   13.3148 O.2     1  UNL1       -0.1726
@<TRIPOS>BOND
     1    19    20    1
     2    20    21    2
     3    20    22    2
     4    20    18    1
     5    18     1    1
     6     1     2   ar
     7     2     3   ar
     8     3    13    1
     9    13    14    1
    10    14    15    1
    11    15    16    1
    12    16    17    1
    13     3     4   ar
    14     4     5   ar
    15     5     7    1
    16     7     8   ar
    17     8     9   ar
    18     9    10   ar
    19    10    11   ar
    20    11    12   ar
    21     5     6   ar
    22     6     1   ar
    23    17    13    1
    24    12     7   ar
