@<TRIPOS>MOLECULE
*****
 33 35 0 0 0
SMALL
GASTEIGER

@<TRIPOS>ATOM
      1 C          65.0098   90.5055   13.6362 C.ar    1  UNL1        0.1263
      2 C          65.2604   89.7166   14.8871 C.ar    1  UNL1        0.0215
      3 C          64.6387   88.3621   15.0568 C.ar    1  UNL1        0.0169
      4 C          63.7665   87.7964   13.9755 C.ar    1  UNL1        0.0611
      5 C          63.5159   88.5853   12.7245 C.ar    1  UNL1        0.0724
      6 CL         62.6436   88.0197   11.6432 Cl      1  UNL1       -0.0809
      7 C          64.1376   89.9398   12.5548 C.ar    1  UNL1        0.0328
      8 N          63.1448   86.4419   14.1452 N.am    1  UNL1       -0.2821
      9 C          64.0060   85.2561   14.4648 C.2     1  UNL1        0.2425
     10 O          65.4890   85.4248   14.6147 O.2     1  UNL1       -0.2733
     11 H          62.1715   86.3312   14.0468 H       1  UNL1        0.1549
     12 C          63.3843   83.9016   14.6344 C.3     1  UNL1        0.1587
     13 N          63.3386   82.9472   13.4781 N.3     1  UNL1       -0.2650
     14 C          63.3724   81.4680   13.7248 C.3     1  UNL1        0.0900
     15 C          63.2592   83.4720   12.0752 C.3     1  UNL1        0.0608
     16 C          64.2091   82.9662   11.0303 C.3     1  UNL1        0.0333
     17 C          64.1297   83.4910    9.6273 C.3     1  UNL1        0.0735
     18 N          63.1003   84.5216    9.2693 N.3     1  UNL1       -0.2714
     19 C          63.0208   85.0464    7.8663 C.3     1  UNL1        0.0896
     20 C          62.1503   85.0274   10.3141 C.3     1  UNL1        0.0735
     21 C          62.2298   84.5026   11.7171 C.3     1  UNL1        0.0333
     22 S          65.6315   91.8600   13.4665 S.O2    1  UNL1        0.0766
     23 O          64.3499   92.3749   12.8814 O.2     1  UNL1       -0.1497
     24 O          66.9131   91.3451   14.0516 O.2     1  UNL1       -0.1497
     25 N          66.2532   93.2145   13.2968 N.pl3   1  UNL1       -0.1906
     26 C          66.5202   93.7503   11.9214 C.ar    1  UNL1        0.0688
     27 C          66.2077   95.1818   11.6003 C.ar    1  UNL1        0.0161
     28 C          66.4747   95.7174   10.2249 C.ar    1  UNL1        0.0013
     29 C          67.0541   94.8216    9.1706 C.ar    1  UNL1        0.0001
     30 C          67.3667   93.3901    9.4916 C.ar    1  UNL1        0.0013
     31 C          67.0997   92.8544   10.8670 C.ar    1  UNL1        0.0161
     32 C          67.8618   93.7344   15.2697 C.3     1  UNL1        0.0252
     33 C          66.6079   94.0333   14.5025 C.3     1  UNL1        0.1159
@<TRIPOS>BOND
     1    32    33    1
     2    33    25    1
     3    25    26    1
     4    26    27   ar
     5    27    28   ar
     6    28    29   ar
     7    29    30   ar
     8    30    31   ar
     9    25    22    1
    10    22    23    2
    11    22    24    2
    12    22     1    1
    13     1     2   ar
    14     2     3   ar
    15     3     4   ar
    16     4     8    1
    17     8     9   am
    18     9    10    2
    19     9    12    1
    20    12    13    1
    21    13    14    1
    22    13    15    1
    23    15    16    1
    24    16    17    1
    25    17    18    1
    26    18    19    1
    27    18    20    1
    28    20    21    1
    29     4     5   ar
    30     5     6    1
    31     5     7   ar
    32    31    26   ar
    33     7     1   ar
    34    21    15    1
    35     8    11    1
@<TRIPOS>MOLECULE
*****
 33 35 0 0 0
SMALL
GASTEIGER

@<TRIPOS>ATOM
      1 C          63.3873   85.1495   13.8105 C.ar    1  UNL1        0.1263
      2 C          64.1954   85.5522   15.0084 C.ar    1  UNL1        0.0215
      3 C          64.6285   86.9785   15.1758 C.ar    1  UNL1        0.0169
      4 C          64.2537   88.0021   14.1455 C.ar    1  UNL1        0.0611
      5 C          63.4456   87.5994   12.9475 C.ar    1  UNL1        0.0724
      6 CL         63.0707   88.6229   11.9172 Cl      1  UNL1       -0.0809
      7 C          63.0124   86.1731   12.7801 C.ar    1  UNL1        0.0328
      8 N          64.6868   89.4283   14.3129 N.am    1  UNL1       -0.2821
      9 C          63.8180   90.3927   15.0645 C.2     1  UNL1        0.2425
     10 O          62.5158   89.9309   15.6487 O.2     1  UNL1       -0.2733
     11 H          65.5414   89.7315   13.9295 H       1  UNL1        0.1549
     12 C          64.2511   91.8190   15.2320 C.3     1  UNL1        0.1587
     13 N          65.6999   92.1836   15.0972 N.3     1  UNL1       -0.2650
     14 C          66.5046   92.5225   16.3169 C.3     1  UNL1        0.0900
     15 C          66.3440   92.2093   13.7428 C.3     1  UNL1        0.0608
     16 C          65.5538   92.6455   12.5447 C.3     1  UNL1        0.0333
     17 C          66.1979   92.6711   11.1903 C.3     1  UNL1        0.0735
     18 N          67.6322   92.2606   11.0339 N.3     1  UNL1       -0.2714
     19 C          68.2762   92.2862    9.6795 C.3     1  UNL1        0.0896
     20 C          68.4223   91.8244   12.2320 C.3     1  UNL1        0.0735
     21 C          67.7782   91.7987   13.5864 C.3     1  UNL1        0.0333
     22 S          62.9541   83.7232   13.6431 S.O2    1  UNL1        0.0766
     23 O          62.0313   84.1336   12.5340 O.2     1  UNL1       -0.1497
     24 O          63.8769   83.3127   14.7521 O.2     1  UNL1       -0.1497
     25 N          62.5210   82.2969   13.4756 N.pl3   1  UNL1       -0.1906
     26 C          62.8387   81.5604   12.2080 C.ar    1  UNL1        0.0688
     27 C          62.5289   80.0974   12.0928 C.ar    1  UNL1        0.0161
     28 C          62.8467   79.3610   10.8252 C.ar    1  UNL1        0.0013
     29 C          63.4742   80.0878    9.6728 C.ar    1  UNL1        0.0001
     30 C          63.7841   81.5509    9.7880 C.ar    1  UNL1        0.0013
     31 C          63.4663   82.2872   11.0556 C.ar    1  UNL1        0.0161
     32 C          60.5373   80.8132   14.2591 C.3     1  UNL1        0.0252
     33 C          61.7701   81.6070   14.5757 C.3     1  UNL1        0.1159
@<TRIPOS>BOND
     1    32    33    1
     2    33    25    1
     3    25    26    1
     4    26    27   ar
     5    27    28   ar
     6    28    29   ar
     7    29    30   ar
     8    30    31   ar
     9    25    22    1
    10    22    23    2
    11    22    24    2
    12    22     1    1
    13     1     2   ar
    14     2     3   ar
    15     3     4   ar
    16     4     8    1
    17     8     9   am
    18     9    10    2
    19     9    12    1
    20    12    13    1
    21    13    14    1
    22    13    15    1
    23    15    16    1
    24    16    17    1
    25    17    18    1
    26    18    19    1
    27    18    20    1
    28    20    21    1
    29     4     5   ar
    30     5     6    1
    31     5     7   ar
    32    31    26   ar
    33     7     1   ar
    34    21    15    1
    35     8    11    1
@<TRIPOS>MOLECULE
*****
 33 35 0 0 0
SMALL
GASTEIGER

@<TRIPOS>ATOM
      1 C          65.2015   91.8440   13.2203 C.ar    1  UNL1        0.1263
      2 C          65.4066   91.7028   14.6995 C.ar    1  UNL1        0.0215
      3 C          64.8191   90.5316   15.4297 C.ar    1  UNL1        0.0169
      4 C          64.0265   89.5017   14.6807 C.ar    1  UNL1        0.0611
      5 C          63.8214   89.6428   13.2015 C.ar    1  UNL1        0.0724
      6 CL         63.0289   88.6129   12.4525 Cl      1  UNL1       -0.0809
      7 C          64.4089   90.8140   12.4713 C.ar    1  UNL1        0.0328
      8 N          63.4390   88.3305   15.4109 N.am    1  UNL1       -0.2821
      9 C          64.1763   87.0249   15.4507 C.2     1  UNL1        0.2425
     10 O          65.5012   86.8903   14.7602 O.2     1  UNL1       -0.2733
     11 H          62.5695   88.4188   15.8641 H       1  UNL1        0.1549
     12 C          63.5888   85.8537   16.1809 C.3     1  UNL1        0.1587
     13 N          62.3921   85.1439   15.6203 N.3     1  UNL1       -0.2650
     14 C          61.0298   85.4049   16.1913 C.3     1  UNL1        0.0900
     15 C          62.5578   84.1732   14.4888 C.3     1  UNL1        0.0608
     16 C          62.9349   84.6691   13.1243 C.3     1  UNL1        0.0333
     17 C          63.1005   83.6984   11.9929 C.3     1  UNL1        0.0735
     18 N          62.8891   82.2318   12.2259 N.3     1  UNL1       -0.2714
     19 C          63.0548   81.2611   11.0944 C.3     1  UNL1        0.0896
     20 C          62.5120   81.7358   13.5904 C.3     1  UNL1        0.0735
     21 C          62.3464   82.7066   14.7219 C.3     1  UNL1        0.0333
     22 S          65.7890   93.0152   12.4901 S.O2    1  UNL1        0.0766
     23 O          64.9055   92.7247   11.3133 O.2     1  UNL1       -0.1497
     24 O          66.6726   93.3057   13.6669 O.2     1  UNL1       -0.1497
     25 N          66.3765   94.1864   11.7599 N.pl3   1  UNL1       -0.1906
     26 C          67.0550   93.9822   10.4377 C.ar    1  UNL1        0.0688
     27 C          66.8922   94.9983    9.3464 C.ar    1  UNL1        0.0161
     28 C          67.5707   94.7942    8.0243 C.ar    1  UNL1        0.0013
     29 C          68.4119   93.5739    7.7935 C.ar    1  UNL1        0.0001
     30 C          68.5747   92.5578    8.8848 C.ar    1  UNL1        0.0013
     31 C          67.8963   92.7620   10.2069 C.ar    1  UNL1        0.0161
     32 C          65.8825   96.7230   11.4922 C.3     1  UNL1        0.0252
     33 C          66.2856   95.5616   12.3518 C.3     1  UNL1        0.1159
@<TRIPOS>BOND
     1    32    33    1
     2    33    25    1
     3    25    26    1
     4    26    27   ar
     5    27    28   ar
     6    28    29   ar
     7    29    30   ar
     8    30    31   ar
     9    25    22    1
    10    22    23    2
    11    22    24    2
    12    22     1    1
    13     1     2   ar
    14     2     3   ar
    15     3     4   ar
    16     4     8    1
    17     8     9   am
    18     9    10    2
    19     9    12    1
    20    12    13    1
    21    13    14    1
    22    13    15    1
    23    15    16    1
    24    16    17    1
    25    17    18    1
    26    18    19    1
    27    18    20    1
    28    20    21    1
    29     4     5   ar
    30     5     6    1
    31     5     7   ar
    32    31    26   ar
    33     7     1   ar
    34    21    15    1
    35     8    11    1
@<TRIPOS>MOLECULE
*****
 33 35 0 0 0
SMALL
GASTEIGER

@<TRIPOS>ATOM
      1 C          62.9718   88.8040   11.3206 C.ar    1  UNL1        0.1263
      2 C          63.0166   89.9667   10.3740 C.ar    1  UNL1        0.0215
      3 C          63.6687   91.2507   10.7936 C.ar    1  UNL1        0.0169
      4 C          64.2760   91.3720   12.1597 C.ar    1  UNL1        0.0611
      5 C          64.2313   90.2093   13.1063 C.ar    1  UNL1        0.0724
      6 CL         64.8386   90.3306   14.4725 Cl      1  UNL1       -0.0809
      7 C          63.5791   88.9253   12.6868 C.ar    1  UNL1        0.0328
      8 N          64.9282   92.6560   12.5793 N.am    1  UNL1       -0.2821
      9 C          66.1554   93.1418   11.8666 C.2     1  UNL1        0.2425
     10 O          66.7306   92.3434   10.7344 O.2     1  UNL1       -0.2733
     11 H          64.5507   93.1800   13.3224 H       1  UNL1        0.1549
     12 C          66.8076   94.4258   12.2862 C.3     1  UNL1        0.1587
     13 N          66.2989   95.7335   11.7560 N.3     1  UNL1       -0.2650
     14 C          65.9824   96.8541   12.7017 C.3     1  UNL1        0.0900
     15 C          66.1067   95.9207   10.2802 C.3     1  UNL1        0.0608
     16 C          64.9040   96.6563    9.7679 C.3     1  UNL1        0.0333
     17 C          64.7118   96.8435    8.2921 C.3     1  UNL1        0.0735
     18 N          65.7223   96.2951    7.3286 N.3     1  UNL1       -0.2714
     19 C          65.5301   96.4823    5.8528 C.3     1  UNL1        0.0896
     20 C          66.9250   95.5596    7.8410 C.3     1  UNL1        0.0735
     21 C          67.1171   95.3724    9.3168 C.3     1  UNL1        0.0333
     22 S          62.3196   87.5200   10.9010 S.O2    1  UNL1        0.0766
     23 O          62.4870   86.9809   12.2907 O.2     1  UNL1       -0.1497
     24 O          62.1523   88.0591    9.5113 O.2     1  UNL1       -0.1497
     25 N          61.6675   86.2360   10.4814 N.pl3   1  UNL1       -0.1906
     26 C          62.3684   84.9294   10.7091 C.ar    1  UNL1        0.0688
     27 C          63.3622   84.4264    9.7045 C.ar    1  UNL1        0.0161
     28 C          64.0630   83.1199    9.9323 C.ar    1  UNL1        0.0013
     29 C          63.7700   82.3165   11.1646 C.ar    1  UNL1        0.0001
     30 C          62.7762   82.8195   12.1692 C.ar    1  UNL1        0.0013
     31 C          62.0754   84.1260   11.9415 C.ar    1  UNL1        0.0161
     32 C          60.1989   86.3072    8.3394 C.3     1  UNL1        0.0252
     33 C          60.3146   86.2585    9.8342 C.3     1  UNL1        0.1159
@<TRIPOS>BOND
     1    32    33    1
     2    33    25    1
     3    25    26    1
     4    26    27   ar
     5    27    28   ar
     6    28    29   ar
     7    29    30   ar
     8    30    31   ar
     9    25    22    1
    10    22    23    2
    11    22    24    2
    12    22     1    1
    13     1     2   ar
    14     2     3   ar
    15     3     4   ar
    16     4     8    1
    17     8     9   am
    18     9    10    2
    19     9    12    1
    20    12    13    1
    21    13    14    1
    22    13    15    1
    23    15    16    1
    24    16    17    1
    25    17    18    1
    26    18    19    1
    27    18    20    1
    28    20    21    1
    29     4     5   ar
    30     5     6    1
    31     5     7   ar
    32    31    26   ar
    33     7     1   ar
    34    21    15    1
    35     8    11    1
@<TRIPOS>MOLECULE
*****
 33 35 0 0 0
SMALL
GASTEIGER

@<TRIPOS>ATOM
      1 C          61.7515   89.0341   10.6230 C.ar    1  UNL1        0.1263
      2 C          61.5300   88.8650   12.0969 C.ar    1  UNL1        0.0215
      3 C          62.2463   89.7541   13.0697 C.ar    1  UNL1        0.0169
      4 C          63.1841   90.8122   12.5687 C.ar    1  UNL1        0.0611
      5 C          63.4055   90.9813   11.0948 C.ar    1  UNL1        0.0724
      6 CL         64.3432   92.0394   10.5938 Cl      1  UNL1       -0.0809
      7 C          62.6892   90.0922   10.1219 C.ar    1  UNL1        0.0328
      8 N          63.9004   91.7012   13.5416 N.am    1  UNL1       -0.2821
      9 C          64.8407   91.1075   14.5482 C.2     1  UNL1        0.2425
     10 O          65.0648   89.6247   14.5819 O.2     1  UNL1       -0.2733
     11 H          63.7533   92.6744   13.5195 H       1  UNL1        0.1549
     12 C          65.5570   91.9966   15.5210 C.3     1  UNL1        0.1587
     13 N          66.7341   92.8089   15.0684 N.3     1  UNL1       -0.2650
     14 C          67.7059   93.3472   16.0763 C.3     1  UNL1        0.0900
     15 C          66.9392   93.0829   13.6081 C.3     1  UNL1        0.0608
     16 C          67.7186   92.1167   12.7660 C.3     1  UNL1        0.0333
     17 C          67.9238   92.3907   11.3056 C.3     1  UNL1        0.0735
     18 N          67.3496   93.6308   10.6872 N.3     1  UNL1       -0.2714
     19 C          67.5548   93.9048    9.2268 C.3     1  UNL1        0.0896
     20 C          66.5702   94.5970   11.5293 C.3     1  UNL1        0.0735
     21 C          66.3651   94.3230   12.9897 C.3     1  UNL1        0.0333
     22 S          61.0351   88.1450    9.6501 S.O2    1  UNL1        0.0766
     23 O          60.9146   87.0866   10.7061 O.2     1  UNL1       -0.1497
     24 O          61.1557   89.2034    8.5941 O.2     1  UNL1       -0.1497
     25 N          60.3188   87.2559    8.6772 N.pl3   1  UNL1       -0.1906
     26 C          61.0675   86.1712    7.9609 C.ar    1  UNL1        0.0688
     27 C          62.4572   85.8080    8.3929 C.ar    1  UNL1        0.0161
     28 C          63.2058   84.7233    7.6766 C.ar    1  UNL1        0.0013
     29 C          62.5646   84.0019    6.5283 C.ar    1  UNL1        0.0001
     30 C          61.1749   84.3652    6.0964 C.ar    1  UNL1        0.0013
     31 C          60.4263   85.4499    6.8127 C.ar    1  UNL1        0.0161
     32 C          58.4009   88.3051    7.2734 C.3     1  UNL1        0.0252
     33 C          58.8540   87.4515    8.4207 C.3     1  UNL1        0.1159
@<TRIPOS>BOND
     1    32    33    1
     2    33    25    1
     3    25    26    1
     4    26    27   ar
     5    27    28   ar
     6    28    29   ar
     7    29    30   ar
     8    30    31   ar
     9    25    22    1
    10    22    23    2
    11    22    24    2
    12    22     1    1
    13     1     2   ar
    14     2     3   ar
    15     3     4   ar
    16     4     8    1
    17     8     9   am
    18     9    10    2
    19     9    12    1
    20    12    13    1
    21    13    14    1
    22    13    15    1
    23    15    16    1
    24    16    17    1
    25    17    18    1
    26    18    19    1
    27    18    20    1
    28    20    21    1
    29     4     5   ar
    30     5     6    1
    31     5     7   ar
    32    31    26   ar
    33     7     1   ar
    34    21    15    1
    35     8    11    1
@<TRIPOS>MOLECULE
*****
 33 35 0 0 0
SMALL
GASTEIGER

@<TRIPOS>ATOM
      1 C          63.4952   86.3786   13.4061 C.ar    1  UNL1        0.1263
      2 C          64.1778   87.2117   14.4501 C.ar    1  UNL1        0.0215
      3 C          64.3160   88.6926   14.2557 C.ar    1  UNL1        0.0169
      4 C          63.7716   89.3404   13.0172 C.ar    1  UNL1        0.0611
      5 C          63.0890   88.5074   11.9731 C.ar    1  UNL1        0.0724
      6 CL         62.5446   89.1552   10.7346 Cl      1  UNL1       -0.0809
      7 C          62.9508   87.0265   12.1675 C.ar    1  UNL1        0.0328
      8 N          63.9099   90.8213   12.8227 N.am    1  UNL1       -0.2821
      9 C          65.0641   91.5543   13.4395 C.2     1  UNL1        0.2425
     10 O          66.0802   90.8063   14.2508 O.2     1  UNL1       -0.2733
     11 H          63.2430   91.3123   12.2902 H       1  UNL1        0.1549
     12 C          65.2024   93.0352   13.2450 C.3     1  UNL1        0.1587
     13 N          66.5217   93.6175   12.8324 N.3     1  UNL1       -0.2650
     14 C          67.7393   93.3903   13.6784 C.3     1  UNL1        0.0900
     15 C          66.6235   94.4270   11.5737 C.3     1  UNL1        0.0608
     16 C          66.2720   95.8851   11.5892 C.3     1  UNL1        0.0333
     17 C          66.3737   96.6946   10.3305 C.3     1  UNL1        0.0735
     18 N          66.8270   96.0459    9.0562 N.3     1  UNL1       -0.2714
     19 C          66.9287   96.8554    7.7975 C.3     1  UNL1        0.0896
     20 C          67.1784   94.5878    9.0406 C.3     1  UNL1        0.0735
     21 C          67.0767   93.7783   10.2994 C.3     1  UNL1        0.0333
     22 S          63.3569   84.8977   13.6006 S.O2    1  UNL1        0.0766
     23 O          64.7613   84.8354   14.1240 O.2     1  UNL1       -0.1497
     24 O          61.9526   84.9601   13.0772 O.2     1  UNL1       -0.1497
     25 N          63.2187   83.4168   13.7950 N.pl3   1  UNL1       -0.1906
     26 C          63.2610   82.4976   12.6104 C.ar    1  UNL1        0.0688
     27 C          63.8928   82.9543   11.3289 C.ar    1  UNL1        0.0161
     28 C          63.9351   82.0351   10.1443 C.ar    1  UNL1        0.0013
     29 C          63.3454   80.6593   10.2412 C.ar    1  UNL1        0.0001
     30 C          62.7135   80.2026   11.5226 C.ar    1  UNL1        0.0013
     31 C          62.6713   81.1218   12.7072 C.ar    1  UNL1        0.0161
     32 C          62.5936   83.7472   16.2951 C.3     1  UNL1        0.0252
     33 C          63.0382   82.8551   15.1741 C.3     1  UNL1        0.1159
@<TRIPOS>BOND
     1    32    33    1
     2    33    25    1
     3    25    26    1
     4    26    27   ar
     5    27    28   ar
     6    28    29   ar
     7    29    30   ar
     8    30    31   ar
     9    25    22    1
    10    22    23    2
    11    22    24    2
    12    22     1    1
    13     1     2   ar
    14     2     3   ar
    15     3     4   ar
    16     4     8    1
    17     8     9   am
    18     9    10    2
    19     9    12    1
    20    12    13    1
    21    13    14    1
    22    13    15    1
    23    15    16    1
    24    16    17    1
    25    17    18    1
    26    18    19    1
    27    18    20    1
    28    20    21    1
    29     4     5   ar
    30     5     6    1
    31     5     7   ar
    32    31    26   ar
    33     7     1   ar
    34    21    15    1
    35     8    11    1
@<TRIPOS>MOLECULE
*****
 33 35 0 0 0
SMALL
GASTEIGER

@<TRIPOS>ATOM
      1 C          63.4207   87.0563   13.2389 C.ar    1  UNL1        0.1263
      2 C          62.8379   87.6829   12.0071 C.ar    1  UNL1        0.0215
      3 C          63.0344   89.1468   11.7455 C.ar    1  UNL1        0.0169
      4 C          63.8138   89.9840   12.7158 C.ar    1  UNL1        0.0611
      5 C          64.3967   89.3574   13.9478 C.ar    1  UNL1        0.0724
      6 CL         65.1761   90.1947   14.9181 Cl      1  UNL1       -0.0809
      7 C          64.2002   87.8935   14.2093 C.ar    1  UNL1        0.0328
      8 N          64.0103   91.4479   12.4542 N.am    1  UNL1       -0.2821
      9 C          64.3804   91.9212   11.0798 C.2     1  UNL1        0.2425
     10 O          64.5539   90.9305    9.9669 O.2     1  UNL1       -0.2733
     11 H          63.8965   92.0981   13.1847 H       1  UNL1        0.1549
     12 C          64.5769   93.3850   10.8182 C.3     1  UNL1        0.1587
     13 N          65.8288   94.0685   11.2827 N.3     1  UNL1       -0.2650
     14 C          66.3445   95.2698   10.5472 C.3     1  UNL1        0.0900
     15 C          66.5650   93.5506   12.4826 C.3     1  UNL1        0.0608
     16 C          67.4312   92.3318   12.3627 C.3     1  UNL1        0.0333
     17 C          68.1674   91.8139   13.5626 C.3     1  UNL1        0.0735
     18 N          68.0374   92.5148   14.8825 N.3     1  UNL1       -0.2714
     19 C          68.7736   91.9969   16.0824 C.3     1  UNL1        0.0896
     20 C          67.1712   93.7336   15.0023 C.3     1  UNL1        0.0735
     21 C          66.4350   94.2515   13.8024 C.3     1  UNL1        0.0333
     22 S          63.2242   85.5924   13.5005 S.O2    1  UNL1        0.0766
     23 O          64.4892   85.5665   14.3061 O.2     1  UNL1       -0.1497
     24 O          61.9592   85.6183   12.6949 O.2     1  UNL1       -0.1497
     25 N          63.0277   84.1285   13.7621 N.pl3   1  UNL1       -0.1906
     26 C          63.1855   83.1393   12.6455 C.ar    1  UNL1        0.0688
     27 C          62.5476   81.7856   12.7471 C.ar    1  UNL1        0.0161
     28 C          62.7054   80.7964   11.6305 C.ar    1  UNL1        0.0013
     29 C          63.5012   81.1611   10.4124 C.ar    1  UNL1        0.0001
     30 C          64.1391   82.5148   10.3109 C.ar    1  UNL1        0.0013
     31 C          63.9813   83.5039   11.4274 C.ar    1  UNL1        0.0161
     32 C          62.2500   84.6406   16.1876 C.3     1  UNL1        0.0252
     33 C          62.6733   83.6538   15.1401 C.3     1  UNL1        0.1159
@<TRIPOS>BOND
     1    32    33    1
     2    33    25    1
     3    25    26    1
     4    26    27   ar
     5    27    28   ar
     6    28    29   ar
     7    29    30   ar
     8    30    31   ar
     9    25    22    1
    10    22    23    2
    11    22    24    2
    12    22     1    1
    13     1     2   ar
    14     2     3   ar
    15     3     4   ar
    16     4     8    1
    17     8     9   am
    18     9    10    2
    19     9    12    1
    20    12    13    1
    21    13    14    1
    22    13    15    1
    23    15    16    1
    24    16    17    1
    25    17    18    1
    26    18    19    1
    27    18    20    1
    28    20    21    1
    29     4     5   ar
    30     5     6    1
    31     5     7   ar
    32    31    26   ar
    33     7     1   ar
    34    21    15    1
    35     8    11    1
@<TRIPOS>MOLECULE
*****
 33 35 0 0 0
SMALL
GASTEIGER

@<TRIPOS>ATOM
      1 C          63.4517   86.2430   12.6526 C.ar    1  UNL1        0.1263
      2 C          64.0672   86.4318   14.0074 C.ar    1  UNL1        0.0215
      3 C          64.2294   87.8120   14.5718 C.ar    1  UNL1        0.0169
      4 C          63.7761   89.0035   13.7814 C.ar    1  UNL1        0.0611
      5 C          63.1605   88.8148   12.4265 C.ar    1  UNL1        0.0724
      6 CL         62.7072   90.0063   11.6362 Cl      1  UNL1       -0.0809
      7 C          62.9983   87.4345   11.8622 C.ar    1  UNL1        0.0328
      8 N          63.9382   90.3838   14.3458 N.am    1  UNL1       -0.2821
      9 C          65.2980   90.8764   14.7438 C.2     1  UNL1        0.2425
     10 O          66.4956   89.9886   14.5775 O.2     1  UNL1       -0.2733
     11 H          63.1522   90.9665   14.4550 H       1  UNL1        0.1549
     12 C          65.4601   92.2566   15.3082 C.3     1  UNL1        0.1587
     13 N          66.5701   93.1404   14.8212 N.3     1  UNL1       -0.2650
     14 C          67.5873   93.6689   15.7887 C.3     1  UNL1        0.0900
     15 C          66.6628   93.4956   13.3669 C.3     1  UNL1        0.0608
     16 C          66.3594   94.8935   12.9154 C.3     1  UNL1        0.0333
     17 C          66.4521   95.2487   11.4611 C.3     1  UNL1        0.0735
     18 N          66.8482   94.2059   10.4581 N.3     1  UNL1       -0.2714
     19 C          66.9410   94.5611    9.0037 C.3     1  UNL1        0.0896
     20 C          67.1516   92.8080   10.9096 C.3     1  UNL1        0.0735
     21 C          67.0589   92.4529   12.3640 C.3     1  UNL1        0.0333
     22 S          63.2895   84.8627   12.0882 S.O2    1  UNL1        0.0766
     23 O          61.9922   85.2732   11.4571 O.2     1  UNL1       -0.1497
     24 O          64.5869   84.4522   12.7194 O.2     1  UNL1       -0.1497
     25 N          63.1274   83.4824   11.5239 N.pl3   1  UNL1       -0.1906
     26 C          62.6617   82.3616   12.4054 C.ar    1  UNL1        0.0688
     27 C          62.8476   80.9383   11.9702 C.ar    1  UNL1        0.0161
     28 C          62.3819   79.8176   12.8517 C.ar    1  UNL1        0.0013
     29 C          61.7304   80.1202   14.1685 C.ar    1  UNL1        0.0001
     30 C          61.5445   81.5436   14.6037 C.ar    1  UNL1        0.0013
     31 C          62.0102   82.6643   13.7222 C.ar    1  UNL1        0.0161
     32 C          63.4990   84.3660    9.1091 C.3     1  UNL1        0.0252
     33 C          63.4308   83.2229   10.0780 C.3     1  UNL1        0.1159
@<TRIPOS>BOND
     1    32    33    1
     2    33    25    1
     3    25    26    1
     4    26    27   ar
     5    27    28   ar
     6    28    29   ar
     7    29    30   ar
     8    30    31   ar
     9    25    22    1
    10    22    23    2
    11    22    24    2
    12    22     1    1
    13     1     2   ar
    14     2     3   ar
    15     3     4   ar
    16     4     8    1
    17     8     9   am
    18     9    10    2
    19     9    12    1
    20    12    13    1
    21    13    14    1
    22    13    15    1
    23    15    16    1
    24    16    17    1
    25    17    18    1
    26    18    19    1
    27    18    20    1
    28    20    21    1
    29     4     5   ar
    30     5     6    1
    31     5     7   ar
    32    31    26   ar
    33     7     1   ar
    34    21    15    1
    35     8    11    1
@<TRIPOS>MOLECULE
*****
 33 35 0 0 0
SMALL
GASTEIGER

@<TRIPOS>ATOM
      1 C          63.8172   87.5521   13.5620 C.ar    1  UNL1        0.1263
      2 C          64.5580   88.3359   14.6045 C.ar    1  UNL1        0.0215
      3 C          64.7902   89.8054   14.4137 C.ar    1  UNL1        0.0169
      4 C          64.2817   90.4912   13.1804 C.ar    1  UNL1        0.0611
      5 C          63.5408   89.7074   12.1378 C.ar    1  UNL1        0.0724
      6 CL         63.0322   90.3931   10.9046 Cl      1  UNL1       -0.0809
      7 C          63.3085   88.2378   12.3287 C.ar    1  UNL1        0.0328
      8 N          64.5139   91.9608   12.9896 N.am    1  UNL1       -0.2821
      9 C          65.8423   92.5620   13.3413 C.2     1  UNL1        0.2425
     10 O          66.9386   91.6937   13.8839 O.2     1  UNL1       -0.2733
     11 H          63.7945   92.5307   12.6334 H       1  UNL1        0.1549
     12 C          66.0746   94.0316   13.1505 C.3     1  UNL1        0.1587
     13 N          66.2210   94.5944   11.7677 N.3     1  UNL1       -0.2650
     14 C          65.5683   95.8983   11.4158 C.3     1  UNL1        0.0900
     15 C          67.0200   93.8534   10.7371 C.3     1  UNL1        0.0608
     16 C          67.4324   92.4329   10.9865 C.3     1  UNL1        0.0333
     17 C          68.2314   91.6919    9.9559 C.3     1  UNL1        0.0735
     18 N          68.6182   92.3713    8.6756 N.3     1  UNL1       -0.2714
     19 C          69.4172   91.6303    7.6450 C.3     1  UNL1        0.0896
     20 C          68.2058   93.7918    8.4262 C.3     1  UNL1        0.0735
     21 C          67.4067   94.5328    9.4569 C.3     1  UNL1        0.0333
     22 S          63.5849   86.0825   13.7529 S.O2    1  UNL1        0.0766
     23 O          64.6813   86.0420   14.7757 O.2     1  UNL1       -0.1497
     24 O          62.4885   86.1229   12.7300 O.2     1  UNL1       -0.1497
     25 N          63.3527   84.6129   13.9437 N.pl3   1  UNL1       -0.1906
     26 C          63.4394   83.6814   12.7711 C.ar    1  UNL1        0.0688
     27 C          62.7087   82.3717   12.7980 C.ar    1  UNL1        0.0161
     28 C          62.7954   81.4403   11.6255 C.ar    1  UNL1        0.0013
     29 C          63.6129   81.8186   10.4261 C.ar    1  UNL1        0.0001
     30 C          64.3436   83.1283   10.3991 C.ar    1  UNL1        0.0013
     31 C          64.2568   84.0597   11.5717 C.ar    1  UNL1        0.0161
     32 C          62.0951   84.8220   16.2075 C.3     1  UNL1        0.0252
     33 C          63.0337   84.0748   15.3070 C.3     1  UNL1        0.1159
@<TRIPOS>BOND
     1    32    33    1
     2    33    25    1
     3    25    26    1
     4    26    27   ar
     5    27    28   ar
     6    28    29   ar
     7    29    30   ar
     8    30    31   ar
     9    25    22    1
    10    22    23    2
    11    22    24    2
    12    22     1    1
    13     1     2   ar
    14     2     3   ar
    15     3     4   ar
    16     4     8    1
    17     8     9   am
    18     9    10    2
    19     9    12    1
    20    12    13    1
    21    13    14    1
    22    13    15    1
    23    15    16    1
    24    16    17    1
    25    17    18    1
    26    18    19    1
    27    18    20    1
    28    20    21    1
    29     4     5   ar
    30     5     6    1
    31     5     7   ar
    32    31    26   ar
    33     7     1   ar
    34    21    15    1
    35     8    11    1
