@<TRIPOS>MOLECULE
*****
 28 31 0 0 0
SMALL
GASTEIGER

@<TRIPOS>ATOM
      1 C          66.5090   92.8559   11.5008 C.3     1  UNL1        0.1456
      2 C          67.1972   92.5878   12.8064 C.2     1  UNL1       -0.0120
      3 C          66.5538   91.6924   13.8233 C.2     1  UNL1        0.0126
      4 C          65.2223   91.0651   13.5347 C.2     1  UNL1        0.0730
      5 N          64.5341   91.3332   12.2291 N.am    1  UNL1       -0.1788
      6 C          65.1774   92.2286   11.2122 C.2     1  UNL1        0.2531
      7 O          64.6381   92.3328   10.3956 O.2     1  UNL1       -0.2725
      8 C          64.5788   90.1696   14.5517 C.ar    1  UNL1        0.0153
      9 C          63.8764   90.7636   15.7365 C.ar    1  UNL1        0.0013
     10 C          63.2330   89.8682   16.7535 C.ar    1  UNL1        0.0000
     11 C          63.2919   88.3787   16.5856 C.ar    1  UNL1        0.0000
     12 C          62.6485   87.4834   17.6026 C.ar    1  UNL1        0.0000
     13 C          62.7074   85.9940   17.4347 C.ar    1  UNL1        0.0000
     14 C          63.4098   85.4000   16.2499 C.ar    1  UNL1        0.0000
     15 C          64.0532   86.2954   15.2329 C.ar    1  UNL1        0.0000
     16 C          63.9943   87.7847   15.4008 C.ar    1  UNL1        0.0000
     17 C          64.6377   88.6802   14.3838 C.ar    1  UNL1        0.0013
     18 C          67.1525   93.7513   10.4838 C.3     1  UNL1        0.2169
     19 O          67.9421   94.3844    9.3767 O.3     1  UNL1       -0.4320
     20 C          67.5963   95.8434    9.3363 C.2     1  UNL1        0.4077
     21 O          68.1557   96.8559    8.3814 O.2     1  UNL1       -0.2260
     22 N          66.5930   96.1121   10.4184 N.am    1  UNL1       -0.2182
     23 C          66.3186   94.8191   11.1276 C.2     1  UNL1        0.2678
     24 O          65.3760   94.6276   12.2786 O.2     1  UNL1       -0.2708
     25 H          66.1859   96.9840   10.6266 H       1  UNL1        0.1610
     26 C          68.0105   91.6905   10.5948 C.3     1  UNL1        0.0041
     27 C          67.8518   92.4964   10.0526 C.3     1  UNL1        0.0462
     28 C          68.3956   92.3817    8.6594 C.3     1  UNL1        0.0041
@<TRIPOS>BOND
     1    26    27    1
     2    27    28    1
     3    27    18    1
     4    18     1    1
     5     1     2    1
     6     2     3    2
     7     3     4    1
     8     4     8    1
     9     8     9   ar
    10     9    10   ar
    11    10    11   ar
    12    11    12   ar
    13    12    13   ar
    14    13    14   ar
    15    14    15   ar
    16    15    16   ar
    17    16    17   ar
    18     4     5    2
    19     5     6    1
    20     6     7    2
    21    18    19    1
    22    19    20    1
    23    20    21    2
    24    20    22   am
    25    22    23   am
    26    23    24    2
    27    23    18    1
    28     6     1    1
    29    17     8   ar
    30    16    11   ar
    31    22    25    1
@<TRIPOS>MOLECULE
*****
 28 31 0 0 0
SMALL
GASTEIGER

@<TRIPOS>ATOM
      1 C          63.7129   90.3362   13.4797 C.3     1  UNL1        0.1456
      2 C          62.8747   90.9777   12.4139 C.2     1  UNL1       -0.0120
      3 C          62.2737   90.1383   11.3258 C.2     1  UNL1        0.0126
      4 C          62.5109   88.6574   11.3033 C.2     1  UNL1        0.0730
      5 N          63.3492   88.0159   12.3690 N.am    1  UNL1       -0.1788
      6 C          63.9502   88.8553   13.4572 C.2     1  UNL1        0.2531
      7 O          64.4792   88.3303   14.0999 O.2     1  UNL1       -0.2725
      8 C          61.9099   87.8180   10.2151 C.ar    1  UNL1        0.0153
      9 C          60.4493   87.9379    9.8954 C.ar    1  UNL1        0.0013
     10 C          59.8483   87.0985    8.8073 C.ar    1  UNL1        0.0000
     11 C          60.7079   86.1391    8.0387 C.ar    1  UNL1        0.0000
     12 C          60.1069   85.2997    6.9505 C.ar    1  UNL1        0.0000
     13 C          60.9666   84.3404    6.1820 C.ar    1  UNL1        0.0000
     14 C          62.4272   84.2205    6.5016 C.ar    1  UNL1        0.0000
     15 C          63.0282   85.0599    7.5897 C.ar    1  UNL1        0.0000
     16 C          62.1686   86.0192    8.3583 C.ar    1  UNL1        0.0000
     17 C          62.7696   86.8586    9.4465 C.ar    1  UNL1        0.0013
     18 C          64.3139   91.1757   14.5679 C.3     1  UNL1        0.2169
     19 O          65.1252   92.0910   15.4362 O.3     1  UNL1       -0.4320
     20 C          64.4951   92.1181   16.7971 C.2     1  UNL1        0.4077
     21 O          64.9804   92.9055   17.9779 O.2     1  UNL1       -0.2260
     22 N          63.2944   91.2195   16.7700 N.am    1  UNL1       -0.2182
     23 C          63.1824   90.6370   15.3922 C.2     1  UNL1        0.2678
     24 O          62.1246   89.6833   14.9215 O.2     1  UNL1       -0.2708
     25 H          62.6865   91.0430   17.5241 H       1  UNL1        0.1610
     26 C          65.1356   91.9095   12.6232 C.3     1  UNL1        0.0041
     27 C          65.3198   91.5388   13.5161 C.3     1  UNL1        0.0462
     28 C          66.7836   91.3446   13.7794 C.3     1  UNL1        0.0041
@<TRIPOS>BOND
     1    26    27    1
     2    27    28    1
     3    27    18    1
     4    18     1    1
     5     1     2    1
     6     2     3    2
     7     3     4    1
     8     4     8    1
     9     8     9   ar
    10     9    10   ar
    11    10    11   ar
    12    11    12   ar
    13    12    13   ar
    14    13    14   ar
    15    14    15   ar
    16    15    16   ar
    17    16    17   ar
    18     4     5    2
    19     5     6    1
    20     6     7    2
    21    18    19    1
    22    19    20    1
    23    20    21    2
    24    20    22   am
    25    22    23   am
    26    23    24    2
    27    23    18    1
    28     6     1    1
    29    17     8   ar
    30    16    11   ar
    31    22    25    1
@<TRIPOS>MOLECULE
*****
 28 31 0 0 0
SMALL
GASTEIGER

@<TRIPOS>ATOM
      1 C          65.1652   91.2066   14.0668 C.3     1  UNL1        0.1456
      2 C          64.9379   89.7543   14.3656 C.2     1  UNL1       -0.0120
      3 C          64.0759   88.9278   13.4580 C.2     1  UNL1        0.0126
      4 C          63.4412   89.5536   12.2516 C.2     1  UNL1        0.0730
      5 N          63.6685   91.0059   11.9528 N.am    1  UNL1       -0.1788
      6 C          64.5305   91.8324   12.8604 C.2     1  UNL1        0.2531
      7 O          64.6094   92.7688   12.5682 O.2     1  UNL1       -0.2725
      8 C          62.5791   88.7271   11.3439 C.ar    1  UNL1        0.0153
      9 C          62.5443   87.2353   11.4959 C.ar    1  UNL1        0.0013
     10 C          61.6823   86.4088   10.5883 C.ar    1  UNL1        0.0000
     11 C          60.8551   87.0742    9.5285 C.ar    1  UNL1        0.0000
     12 C          59.9931   86.2477    8.6209 C.ar    1  UNL1        0.0000
     13 C          59.1659   86.9131    7.5612 C.ar    1  UNL1        0.0000
     14 C          59.2007   88.4050    7.4092 C.ar    1  UNL1        0.0000
     15 C          60.0627   89.2314    8.3168 C.ar    1  UNL1        0.0000
     16 C          60.8899   88.5660    9.3765 C.ar    1  UNL1        0.0000
     17 C          61.7519   89.3925   10.2842 C.ar    1  UNL1        0.0013
     18 C          66.0273   92.0331   14.9745 C.3     1  UNL1        0.2169
     19 O          66.6469   92.8358   16.0798 O.3     1  UNL1       -0.4320
     20 C          68.0088   93.2727   15.6280 C.2     1  UNL1        0.4077
     21 O          68.9785   94.0975   16.4214 O.2     1  UNL1       -0.2260
     22 N          68.2309   92.7401   14.2435 N.am    1  UNL1       -0.2182
     23 C          67.0062   91.9739   13.8396 C.2     1  UNL1        0.2678
     24 O          66.7972   91.2719   12.5305 O.2     1  UNL1       -0.2708
     25 H          69.0387   92.8705   13.6959 H       1  UNL1        0.1610
     26 C          64.0479   91.3910   15.7904 C.3     1  UNL1        0.0041
     27 C          64.8681   91.9194   15.9197 C.3     1  UNL1        0.0462
     28 C          64.8875   92.6617   17.2230 C.3     1  UNL1        0.0041
@<TRIPOS>BOND
     1    26    27    1
     2    27    28    1
     3    27    18    1
     4    18     1    1
     5     1     2    1
     6     2     3    2
     7     3     4    1
     8     4     8    1
     9     8     9   ar
    10     9    10   ar
    11    10    11   ar
    12    11    12   ar
    13    12    13   ar
    14    13    14   ar
    15    14    15   ar
    16    15    16   ar
    17    16    17   ar
    18     4     5    2
    19     5     6    1
    20     6     7    2
    21    18    19    1
    22    19    20    1
    23    20    21    2
    24    20    22   am
    25    22    23   am
    26    23    24    2
    27    23    18    1
    28     6     1    1
    29    17     8   ar
    30    16    11   ar
    31    22    25    1
@<TRIPOS>MOLECULE
*****
 28 31 0 0 0
SMALL
GASTEIGER

@<TRIPOS>ATOM
      1 C          65.6839   91.7629   13.1923 C.3     1  UNL1        0.1456
      2 C          65.0981   92.4345   11.9857 C.2     1  UNL1       -0.0120
      3 C          63.9804   91.7783   11.2307 C.2     1  UNL1        0.0126
      4 C          63.4484   90.4505   11.6823 C.2     1  UNL1        0.0730
      5 N          64.0342   89.7789   12.8889 N.am    1  UNL1       -0.1788
      6 C          65.1519   90.4351   13.6439 C.2     1  UNL1        0.2531
      7 O          65.4571   89.9062   14.4156 O.2     1  UNL1       -0.2725
      8 C          62.3307   89.7942   10.9273 C.ar    1  UNL1        0.0153
      9 C          60.9734   90.4319   10.8924 C.ar    1  UNL1        0.0013
     10 C          59.8557   89.7757   10.1375 C.ar    1  UNL1        0.0000
     11 C          60.0952   88.4818    9.4173 C.ar    1  UNL1        0.0000
     12 C          58.9774   87.8256    8.6624 C.ar    1  UNL1        0.0000
     13 C          59.2170   86.5317    7.9423 C.ar    1  UNL1        0.0000
     14 C          60.5742   85.8941    7.9772 C.ar    1  UNL1        0.0000
     15 C          61.6920   86.5503    8.7321 C.ar    1  UNL1        0.0000
     16 C          61.4524   87.8441    9.4522 C.ar    1  UNL1        0.0000
     17 C          62.5702   88.5004   10.2072 C.ar    1  UNL1        0.0013
     18 C          66.8016   92.4192   13.9473 C.3     1  UNL1        0.2169
     19 O          68.0884   93.0056   14.4476 O.3     1  UNL1       -0.4320
     20 C          67.8414   93.5648   15.8173 C.2     1  UNL1        0.4077
     21 O          68.8557   94.2454   16.6879 O.2     1  UNL1       -0.2260
     22 N          66.4019   93.3241   16.1636 N.am    1  UNL1       -0.2182
     23 C          65.7593   92.6160   15.0079 C.2     1  UNL1        0.2678
     24 O          64.3260   92.1811   14.9270 O.2     1  UNL1       -0.2708
     25 H          65.9571   93.5850   17.0023 H       1  UNL1        0.1610
     26 C          68.3326   91.4202   12.6614 C.3     1  UNL1        0.0041
     27 C          67.6102   92.0852   12.7289 C.3     1  UNL1        0.0462
     28 C          67.3484   92.7993   11.4361 C.3     1  UNL1        0.0041
@<TRIPOS>BOND
     1    26    27    1
     2    27    28    1
     3    27    18    1
     4    18     1    1
     5     1     2    1
     6     2     3    2
     7     3     4    1
     8     4     8    1
     9     8     9   ar
    10     9    10   ar
    11    10    11   ar
    12    11    12   ar
    13    12    13   ar
    14    13    14   ar
    15    14    15   ar
    16    15    16   ar
    17    16    17   ar
    18     4     5    2
    19     5     6    1
    20     6     7    2
    21    18    19    1
    22    19    20    1
    23    20    21    2
    24    20    22   am
    25    22    23   am
    26    23    24    2
    27    23    18    1
    28     6     1    1
    29    17     8   ar
    30    16    11   ar
    31    22    25    1
@<TRIPOS>MOLECULE
*****
 28 31 0 0 0
SMALL
GASTEIGER

@<TRIPOS>ATOM
      1 C          66.1038   93.2712   11.6810 C.3     1  UNL1        0.1456
      2 C          64.7047   92.7596   11.5057 C.2     1  UNL1       -0.0120
      3 C          64.1536   91.7411   12.4591 C.2     1  UNL1        0.0126
      4 C          65.0016   91.2343   13.5878 C.2     1  UNL1        0.0730
      5 N          66.4007   91.7460   13.7631 N.am    1  UNL1       -0.1788
      6 C          66.9518   92.7645   12.8097 C.2     1  UNL1        0.2531
      7 O          67.8766   93.0272   13.0200 O.2     1  UNL1       -0.2725
      8 C          64.4506   90.2158   14.5413 C.ar    1  UNL1        0.0153
      9 C          63.7467   90.6602   15.7891 C.ar    1  UNL1        0.0013
     10 C          63.1956   89.6418   16.7425 C.ar    1  UNL1        0.0000
     11 C          63.3485   88.1789   16.4482 C.ar    1  UNL1        0.0000
     12 C          62.7974   87.1604   17.4017 C.ar    1  UNL1        0.0000
     13 C          62.9503   85.6976   17.1073 C.ar    1  UNL1        0.0000
     14 C          63.6542   85.2532   15.8595 C.ar    1  UNL1        0.0000
     15 C          64.2052   86.2716   14.9060 C.ar    1  UNL1        0.0000
     16 C          64.0524   87.7344   15.2004 C.ar    1  UNL1        0.0000
     17 C          64.6034   88.7530   14.2469 C.ar    1  UNL1        0.0013
     18 C          66.6548   94.2897   10.7275 C.3     1  UNL1        0.2169
     19 O          67.0915   95.5149    9.9804 O.3     1  UNL1       -0.4320
     20 C          67.7931   95.0706    8.7313 C.2     1  UNL1        0.4077
     21 O          68.3925   95.9684    7.6899 O.2     1  UNL1       -0.2260
     22 N          67.7900   93.5708    8.7064 N.am    1  UNL1       -0.2182
     23 C          67.0865   93.0882    9.9402 C.2     1  UNL1        0.2678
     24 O          66.8553   91.6556   10.3199 O.2     1  UNL1       -0.2708
     25 H          68.1811   93.0029    8.0037 H       1  UNL1        0.1610
     26 C          66.1732   95.2341   12.6952 C.3     1  UNL1        0.0041
     27 C          66.1079   95.2783   11.7142 C.3     1  UNL1        0.0462
     28 C          65.3696   96.4910   11.2301 C.3     1  UNL1        0.0041
@<TRIPOS>BOND
     1    26    27    1
     2    27    28    1
     3    27    18    1
     4    18     1    1
     5     1     2    1
     6     2     3    2
     7     3     4    1
     8     4     8    1
     9     8     9   ar
    10     9    10   ar
    11    10    11   ar
    12    11    12   ar
    13    12    13   ar
    14    13    14   ar
    15    14    15   ar
    16    15    16   ar
    17    16    17   ar
    18     4     5    2
    19     5     6    1
    20     6     7    2
    21    18    19    1
    22    19    20    1
    23    20    21    2
    24    20    22   am
    25    22    23   am
    26    23    24    2
    27    23    18    1
    28     6     1    1
    29    17     8   ar
    30    16    11   ar
    31    22    25    1
@<TRIPOS>MOLECULE
*****
 28 31 0 0 0
SMALL
GASTEIGER

@<TRIPOS>ATOM
      1 C          61.7779   87.3318    9.6399 C.3     1  UNL1        0.1456
      2 C          62.2379   88.7353    9.3781 C.2     1  UNL1       -0.0120
      3 C          62.8468   89.5438   10.4851 C.2     1  UNL1        0.0126
      4 C          62.9957   88.9487   11.8539 C.2     1  UNL1        0.0730
      5 N          62.5357   87.5452   12.1157 N.am    1  UNL1       -0.1788
      6 C          61.9268   86.7368   11.0087 C.2     1  UNL1        0.2531
      7 O          61.6622   85.8327   11.2936 O.2     1  UNL1       -0.2725
      8 C          63.6047   89.7573   12.9610 C.ar    1  UNL1        0.0153
      9 C          63.1597   89.5441   14.3775 C.ar    1  UNL1        0.0013
     10 C          63.7686   90.3525   15.4846 C.ar    1  UNL1        0.0000
     11 C          64.8225   91.3742   15.1752 C.ar    1  UNL1        0.0000
     12 C          65.4314   92.1826   16.2822 C.ar    1  UNL1        0.0000
     13 C          66.4852   93.2042   15.9728 C.ar    1  UNL1        0.0000
     14 C          66.9301   93.4173   14.5562 C.ar    1  UNL1        0.0000
     15 C          66.3212   92.6089   13.4491 C.ar    1  UNL1        0.0000
     16 C          65.2674   91.5873   13.7586 C.ar    1  UNL1        0.0000
     17 C          64.6585   90.7788   12.6515 C.ar    1  UNL1        0.0013
     18 C          61.1689   86.5233    8.5328 C.3     1  UNL1        0.2169
     19 O          60.3041   85.8857    7.4861 O.3     1  UNL1       -0.4320
     20 C          61.1210   84.8433    6.7819 C.2     1  UNL1        0.4077
     21 O          60.6507   83.9622    5.6627 O.2     1  UNL1       -0.2260
     22 N          62.4907   84.8366    7.3932 N.am    1  UNL1       -0.2182
     23 C          62.5203   85.8749    8.4754 C.2     1  UNL1        0.2678
     24 O          63.6952   86.2065    9.3471 O.2     1  UNL1       -0.2708
     25 H          63.2389   84.2531    7.1304 H       1  UNL1        0.1610
     26 C          59.4256   87.3546    9.6576 C.3     1  UNL1        0.0041
     27 C          59.9449   87.3407    8.8217 C.3     1  UNL1        0.0462
     28 C          59.3922   88.2598    7.7730 C.3     1  UNL1        0.0041
@<TRIPOS>BOND
     1    26    27    1
     2    27    28    1
     3    27    18    1
     4    18     1    1
     5     1     2    1
     6     2     3    2
     7     3     4    1
     8     4     8    1
     9     8     9   ar
    10     9    10   ar
    11    10    11   ar
    12    11    12   ar
    13    12    13   ar
    14    13    14   ar
    15    14    15   ar
    16    15    16   ar
    17    16    17   ar
    18     4     5    2
    19     5     6    1
    20     6     7    2
    21    18    19    1
    22    19    20    1
    23    20    21    2
    24    20    22   am
    25    22    23   am
    26    23    24    2
    27    23    18    1
    28     6     1    1
    29    17     8   ar
    30    16    11   ar
    31    22    25    1
@<TRIPOS>MOLECULE
*****
 28 31 0 0 0
SMALL
GASTEIGER

@<TRIPOS>ATOM
      1 C          63.5509   84.1847   13.6163 C.3     1  UNL1        0.1456
      2 C          64.5699   84.4934   14.6729 C.2     1  UNL1       -0.0120
      3 C          64.8256   85.9155   15.0756 C.2     1  UNL1        0.0126
      4 C          64.0623   87.0289   14.4217 C.2     1  UNL1        0.0730
      5 N          63.0433   86.7202   13.3651 N.am    1  UNL1       -0.1788
      6 C          62.7876   85.2981   12.9624 C.2     1  UNL1        0.2531
      7 O          62.1006   85.2142   12.2628 O.2     1  UNL1       -0.2725
      8 C          64.3179   88.4511   14.8243 C.ar    1  UNL1        0.0153
      9 C          63.4821   89.0896   15.8938 C.ar    1  UNL1        0.0013
     10 C          63.7377   90.5117   16.2965 C.ar    1  UNL1        0.0000
     11 C          64.8292   91.2954   15.6297 C.ar    1  UNL1        0.0000
     12 C          65.0848   92.7176   16.0323 C.ar    1  UNL1        0.0000
     13 C          66.1763   93.5012   15.3655 C.ar    1  UNL1        0.0000
     14 C          67.0121   92.8627   14.2961 C.ar    1  UNL1        0.0000
     15 C          66.7565   91.4406   13.8934 C.ar    1  UNL1        0.0000
     16 C          65.6650   90.6570   14.5602 C.ar    1  UNL1        0.0000
     17 C          65.4094   89.2348   14.1575 C.ar    1  UNL1        0.0013
     18 C          63.2952   82.7625   13.2137 C.3     1  UNL1        0.2169
     19 O          63.2328   81.4075   12.5733 O.3     1  UNL1       -0.4320
     20 C          62.3234   80.5463   13.3987 C.2     1  UNL1        0.4077
     21 O          61.9749   79.1138   13.1221 O.2     1  UNL1       -0.2260
     22 N          61.8238   81.3689   14.5491 N.am    1  UNL1       -0.2182
     23 C          62.4244   82.7387   14.4348 C.2     1  UNL1        0.2678
     24 O          62.1946   83.8836   15.3763 O.2     1  UNL1       -0.2708
     25 H          61.2095   81.0635   15.2553 H       1  UNL1        0.1610
     26 C          65.1237   83.4673   12.1387 C.3     1  UNL1        0.0041
     27 C          64.2195   83.0837   12.0768 C.3     1  UNL1        0.0462
     28 C          63.7903   82.8199   10.6639 C.3     1  UNL1        0.0041
@<TRIPOS>BOND
     1    26    27    1
     2    27    28    1
     3    27    18    1
     4    18     1    1
     5     1     2    1
     6     2     3    2
     7     3     4    1
     8     4     8    1
     9     8     9   ar
    10     9    10   ar
    11    10    11   ar
    12    11    12   ar
    13    12    13   ar
    14    13    14   ar
    15    14    15   ar
    16    15    16   ar
    17    16    17   ar
    18     4     5    2
    19     5     6    1
    20     6     7    2
    21    18    19    1
    22    19    20    1
    23    20    21    2
    24    20    22   am
    25    22    23   am
    26    23    24    2
    27    23    18    1
    28     6     1    1
    29    17     8   ar
    30    16    11   ar
    31    22    25    1
@<TRIPOS>MOLECULE
*****
 28 31 0 0 0
SMALL
GASTEIGER

@<TRIPOS>ATOM
      1 C          61.9224   88.1535   10.4274 C.3     1  UNL1        0.1456
      2 C          62.3476   89.5625   10.1375 C.2     1  UNL1       -0.0120
      3 C          63.1439   90.3292   11.1513 C.2     1  UNL1        0.0126
      4 C          63.5149   89.6871   12.4551 C.2     1  UNL1        0.0730
      5 N          63.0896   88.2782   12.7451 N.am    1  UNL1       -0.1788
      6 C          62.2934   87.5114   11.7312 C.2     1  UNL1        0.2531
      7 O          62.0704   86.5997   12.0271 O.2     1  UNL1       -0.2725
      8 C          64.3112   90.4539   13.4691 C.ar    1  UNL1        0.0153
      9 C          63.7250   90.7453   14.8187 C.ar    1  UNL1        0.0013
     10 C          64.5212   91.5120   15.8326 C.ar    1  UNL1        0.0000
     11 C          65.9038   91.9874   15.4970 C.ar    1  UNL1        0.0000
     12 C          66.7000   92.7542   16.5109 C.ar    1  UNL1        0.0000
     13 C          68.0825   93.2295   16.1752 C.ar    1  UNL1        0.0000
     14 C          68.6687   92.9381   14.8256 C.ar    1  UNL1        0.0000
     15 C          67.8725   92.1714   13.8117 C.ar    1  UNL1        0.0000
     16 C          66.4900   91.6960   14.1474 C.ar    1  UNL1        0.0000
     17 C          65.6937   90.9292   13.1334 C.ar    1  UNL1        0.0013
     18 C          61.1261   87.3867    9.4135 C.3     1  UNL1        0.2169
     19 O          60.6044   86.4820    8.3368 O.3     1  UNL1       -0.4320
     20 C          59.1352   86.7430    8.1837 C.2     1  UNL1        0.4077
     21 O          58.2141   86.0582    7.2180 O.2     1  UNL1       -0.2260
     22 N          58.7489   87.8090    9.1657 N.am    1  UNL1       -0.2182
     23 C          59.9794   88.2068    9.9258 C.2     1  UNL1        0.2678
     24 O          60.0505   89.2430   11.0082 O.2     1  UNL1       -0.2708
     25 H          57.8463   88.1820    9.2896 H       1  UNL1        0.1610
     26 C          63.3080   87.1699    8.9806 C.3     1  UNL1        0.0041
     27 C          62.4393   86.7269    9.1132 C.3     1  UNL1        0.0462
     28 C          62.5169   85.2344    8.9862 C.3     1  UNL1        0.0041
@<TRIPOS>BOND
     1    26    27    1
     2    27    28    1
     3    27    18    1
     4    18     1    1
     5     1     2    1
     6     2     3    2
     7     3     4    1
     8     4     8    1
     9     8     9   ar
    10     9    10   ar
    11    10    11   ar
    12    11    12   ar
    13    12    13   ar
    14    13    14   ar
    15    14    15   ar
    16    15    16   ar
    17    16    17   ar
    18     4     5    2
    19     5     6    1
    20     6     7    2
    21    18    19    1
    22    19    20    1
    23    20    21    2
    24    20    22   am
    25    22    23   am
    26    23    24    2
    27    23    18    1
    28     6     1    1
    29    17     8   ar
    30    16    11   ar
    31    22    25    1
@<TRIPOS>MOLECULE
*****
 28 31 0 0 0
SMALL
GASTEIGER

@<TRIPOS>ATOM
      1 C          63.2859   84.5024   13.3277 C.3     1  UNL1        0.1456
      2 C          64.2991   84.9867   14.3221 C.2     1  UNL1       -0.0120
      3 C          64.6606   86.4414   14.3764 C.2     1  UNL1        0.0126
      4 C          64.0091   87.4118   13.4364 C.2     1  UNL1        0.0730
      5 N          62.9959   86.9275   12.4419 N.am    1  UNL1       -0.1788
      6 C          62.6343   85.4727   12.3876 C.2     1  UNL1        0.2531
      7 O          61.9611   85.2693   11.6991 O.2     1  UNL1       -0.2725
      8 C          64.3706   88.8666   13.4907 C.ar    1  UNL1        0.0153
      9 C          63.6675   89.8479   12.6004 C.ar    1  UNL1        0.0013
     10 C          64.0290   91.3027   12.6547 C.ar    1  UNL1        0.0000
     11 C          65.0938   91.7762   13.5993 C.ar    1  UNL1        0.0000
     12 C          65.4553   93.2309   13.6536 C.ar    1  UNL1        0.0000
     13 C          66.5200   93.7043   14.5981 C.ar    1  UNL1        0.0000
     14 C          67.2232   92.7230   15.4884 C.ar    1  UNL1        0.0000
     15 C          66.8617   91.2683   15.4341 C.ar    1  UNL1        0.0000
     16 C          65.7969   90.7948   14.4896 C.ar    1  UNL1        0.0000
     17 C          65.4354   89.3400   14.4352 C.ar    1  UNL1        0.0013
     18 C          62.9243   83.0476   13.2733 C.3     1  UNL1        0.2169
     19 O          62.7671   81.5847   12.9812 O.3     1  UNL1       -0.4320
     20 C          61.7682   81.0235   13.9493 C.2     1  UNL1        0.4077
     21 O          61.3099   79.5968   14.0154 O.2     1  UNL1       -0.2260
     22 N          61.3080   82.1395   14.8397 N.am    1  UNL1       -0.2182
     23 C          62.0226   83.3904   14.4219 C.2     1  UNL1        0.2678
     24 O          61.8633   84.7463   15.0437 O.2     1  UNL1       -0.2708
     25 H          60.6522   82.0641   15.5701 H       1  UNL1        0.1610
     26 C          64.8658   83.2018   12.1769 C.3     1  UNL1        0.0041
     27 C          63.9016   83.0089   12.1361 C.3     1  UNL1        0.0462
     28 C          63.4345   82.6453   10.7579 C.3     1  UNL1        0.0041
@<TRIPOS>BOND
     1    26    27    1
     2    27    28    1
     3    27    18    1
     4    18     1    1
     5     1     2    1
     6     2     3    2
     7     3     4    1
     8     4     8    1
     9     8     9   ar
    10     9    10   ar
    11    10    11   ar
    12    11    12   ar
    13    12    13   ar
    14    13    14   ar
    15    14    15   ar
    16    15    16   ar
    17    16    17   ar
    18     4     5    2
    19     5     6    1
    20     6     7    2
    21    18    19    1
    22    19    20    1
    23    20    21    2
    24    20    22   am
    25    22    23   am
    26    23    24    2
    27    23    18    1
    28     6     1    1
    29    17     8   ar
    30    16    11   ar
    31    22    25    1
