@<TRIPOS>MOLECULE
*****
 23 25 0 0 0
SMALL
GASTEIGER

@<TRIPOS>ATOM
      1 C          65.2586   92.2365   12.6750 C.ar    1  UNL1        0.0685
      2 C          65.6420   91.8429   14.0707 C.ar    1  UNL1        0.0885
      3 C          65.0202   90.6353   14.7070 C.ar    1  UNL1        0.1263
      4 N          64.0149   89.8212   13.9476 N.ar    1  UNL1       -0.1633
      5 N          63.6315   90.2148   12.5518 N.ar    1  UNL1       -0.2270
      6 C          62.6768   89.6107   11.5651 C.ar    1  UNL1        0.1005
      7 C          62.7086   90.4450   10.3190 C.ar    1  UNL1        0.0223
      8 C          63.6830   91.5647   10.5355 C.ar    1  UNL1        0.0220
      9 C          64.2533   91.4224   11.9155 C.ar    1  UNL1        0.0961
     10 C          66.6473   92.6570   14.8301 C.2     1  UNL1        0.2456
     11 N          66.3600   93.0776   16.2410 N.am    1  UNL1       -0.3252
     12 O          67.9398   93.0505   14.1787 O.2     1  UNL1       -0.2703
     13 H          65.5116   92.8193   16.6685 H       1  UNL1        0.1453
     14 H          67.0197   93.6119   16.7394 H       1  UNL1        0.1453
     15 N          65.8805   93.4441   12.0387 N.pl3   1  UNL1       -0.3305
     16 H          65.6718   94.3433   12.3809 H       1  UNL1        0.1469
     17 C          66.9934   95.4042    8.7911 C.3     1  UNL1        0.0370
     18 C          67.0151   94.2589    9.7596 C.3     1  UNL1        0.1500
     19 F          65.9802   95.0625   10.4899 F       1  UNL1       -0.2383
     20 C          68.0454   93.6948    8.8268 C.3     1  UNL1        0.0343
     21 C          68.4874   92.3689    9.3716 C.3     1  UNL1        0.0046
     22 C          67.7302   92.1136   10.6410 C.3     1  UNL1        0.0223
     23 C          66.8203   93.2817   10.8808 C.3     1  UNL1        0.0993
@<TRIPOS>BOND
     1    18    17    1
     2    18    19    1
     3    18    20    1
     4    20    21    1
     5    21    22    1
     6    22    23    1
     7    23    15    1
     8    15     1    1
     9     1     2   ar
    10     2    10    1
    11    10    11   am
    12    10    12    2
    13     2     3   ar
    14     3     4   ar
    15     4     5   ar
    16     5     6   ar
    17     6     7   ar
    18     7     8   ar
    19     8     9   ar
    20    23    18    1
    21     9     1   ar
    22     9     5   ar
    23    15    16    1
    24    11    13    1
    25    11    14    1
@<TRIPOS>MOLECULE
*****
 23 25 0 0 0
SMALL
GASTEIGER

@<TRIPOS>ATOM
      1 C          62.9122   84.8743   12.8811 C.ar    1  UNL1        0.0685
      2 C          63.8353   85.6833   13.7433 C.ar    1  UNL1        0.0885
      3 C          64.8389   84.9946   14.6199 C.ar    1  UNL1        0.1263
      4 N          64.9194   83.4968   14.6343 N.ar    1  UNL1       -0.1633
      5 N          63.9964   82.6878   13.7721 N.ar    1  UNL1       -0.2270
      6 C          63.8439   81.2083   13.5774 C.ar    1  UNL1        0.1005
      7 C          62.7460   80.9827   12.5805 C.ar    1  UNL1        0.0223
      8 C          62.2200   82.3227   12.1591 C.ar    1  UNL1        0.0220
      9 C          62.9928   83.3765   12.8955 C.ar    1  UNL1        0.0961
     10 C          63.7547   87.1811   13.7289 C.2     1  UNL1        0.2456
     11 N          64.0589   87.9605   14.9739 N.am    1  UNL1       -0.3252
     12 O          63.3700   87.8994   12.4696 O.2     1  UNL1       -0.2703
     13 H          64.3115   87.4890   15.8004 H       1  UNL1        0.1453
     14 H          64.0061   88.9435   14.9645 H       1  UNL1        0.1453
     15 N          61.9086   85.5631   12.0045 N.pl3   1  UNL1       -0.3305
     16 H          61.1380   86.0247   12.4072 H       1  UNL1        0.1469
     17 C          60.1476   87.0158    8.7772 C.3     1  UNL1        0.0370
     18 C          61.1927   86.2358    9.5185 C.3     1  UNL1        0.1500
     19 F          60.4350   86.6786   10.7350 F       1  UNL1       -0.2383
     20 C          61.7319   85.9561    8.1471 C.3     1  UNL1        0.0343
     21 C          62.9517   85.0959    8.2952 C.3     1  UNL1        0.0046
     22 C          63.1664   84.8439    9.7581 C.3     1  UNL1        0.0223
     23 C          62.0793   85.5484   10.5142 C.3     1  UNL1        0.0993
@<TRIPOS>BOND
     1    18    17    1
     2    18    19    1
     3    18    20    1
     4    20    21    1
     5    21    22    1
     6    22    23    1
     7    23    15    1
     8    15     1    1
     9     1     2   ar
    10     2    10    1
    11    10    11   am
    12    10    12    2
    13     2     3   ar
    14     3     4   ar
    15     4     5   ar
    16     5     6   ar
    17     6     7   ar
    18     7     8   ar
    19     8     9   ar
    20    23    18    1
    21     9     1   ar
    22     9     5   ar
    23    15    16    1
    24    11    13    1
    25    11    14    1
@<TRIPOS>MOLECULE
*****
 23 25 0 0 0
SMALL
GASTEIGER

@<TRIPOS>ATOM
      1 C          65.0144   92.3840   12.5331 C.ar    1  UNL1        0.0685
      2 C          64.0435   91.2423   12.5947 C.ar    1  UNL1        0.0885
      3 C          64.0010   90.3584   13.8057 C.ar    1  UNL1        0.1263
      4 N          64.9295   90.6161   14.9554 N.ar    1  UNL1       -0.1633
      5 N          65.9004   91.7578   14.8938 N.ar    1  UNL1       -0.2270
      6 C          66.9302   92.2530   15.8655 C.ar    1  UNL1        0.1005
      7 C          67.6092   93.4430   15.2549 C.ar    1  UNL1        0.0223
      8 C          66.9990   93.6832   13.9058 C.ar    1  UNL1        0.0220
      9 C          65.9429   92.6417   13.6826 C.ar    1  UNL1        0.0961
     10 C          63.1150   90.9846   11.4450 C.2     1  UNL1        0.2456
     11 N          61.7099   90.5278   11.7037 N.am    1  UNL1       -0.3252
     12 O          63.5916   91.1836   10.0368 O.2     1  UNL1       -0.2703
     13 H          61.3970   90.3972   12.6280 H       1  UNL1        0.1453
     14 H          61.1004   90.3587   10.9492 H       1  UNL1        0.1453
     15 N          65.0569   93.2679   11.3219 N.pl3   1  UNL1       -0.3305
     16 H          64.2580   93.7784   11.0569 H       1  UNL1        0.1469
     17 C          67.1030   95.9894    9.3135 C.3     1  UNL1        0.0370
     18 C          66.8381   94.6151    9.8531 C.3     1  UNL1        0.1500
     19 F          65.6117   95.2518   10.4366 F       1  UNL1       -0.2383
     20 C          68.1199   94.2657    9.1568 C.3     1  UNL1        0.0343
     21 C          68.3907   92.8086    9.3880 C.3     1  UNL1        0.0046
     22 C          67.2764   92.2575   10.2272 C.3     1  UNL1        0.0223
     23 C          66.3168   93.3739   10.5146 C.3     1  UNL1        0.0993
@<TRIPOS>BOND
     1    18    17    1
     2    18    19    1
     3    18    20    1
     4    20    21    1
     5    21    22    1
     6    22    23    1
     7    23    15    1
     8    15     1    1
     9     1     2   ar
    10     2    10    1
    11    10    11   am
    12    10    12    2
    13     2     3   ar
    14     3     4   ar
    15     4     5   ar
    16     5     6   ar
    17     6     7   ar
    18     7     8   ar
    19     8     9   ar
    20    23    18    1
    21     9     1   ar
    22     9     5   ar
    23    15    16    1
    24    11    13    1
    25    11    14    1
@<TRIPOS>MOLECULE
*****
 23 25 0 0 0
SMALL
GASTEIGER

@<TRIPOS>ATOM
      1 C          64.0853   91.1852   13.1919 C.ar    1  UNL1        0.0685
      2 C          64.6573   90.8745   14.5433 C.ar    1  UNL1        0.0885
      3 C          66.0741   91.2495   14.8624 C.ar    1  UNL1        0.1263
      4 N          66.9192   91.9352   13.8300 N.ar    1  UNL1       -0.1633
      5 N          66.3472   92.2459   12.4785 N.ar    1  UNL1       -0.2270
      6 C          66.9351   92.9089   11.2682 C.ar    1  UNL1        0.1005
      7 C          65.8815   92.9436   10.2012 C.ar    1  UNL1        0.0223
      8 C          64.6425   92.3021   10.7520 C.ar    1  UNL1        0.0220
      9 C          64.9303   91.8709   12.1595 C.ar    1  UNL1        0.0961
     10 C          63.8122   90.1888   15.5757 C.2     1  UNL1        0.2456
     11 N          63.5951   88.7064   15.5030 N.am    1  UNL1       -0.3252
     12 O          63.1842   90.9855   16.6806 O.2     1  UNL1       -0.2703
     13 H          64.0073   88.1835   14.7778 H       1  UNL1        0.1453
     14 H          63.0405   88.2563   16.1806 H       1  UNL1        0.1453
     15 N          62.6684   90.8103   12.8728 N.pl3   1  UNL1       -0.3305
     16 H          61.9249   91.3508   13.2253 H       1  UNL1        0.1469
     17 C          60.3284   89.7720    9.8606 C.3     1  UNL1        0.0370
     18 C          61.3845   89.5423   10.9008 C.3     1  UNL1        0.1500
     19 F          61.1157   90.9727   11.2634 F       1  UNL1       -0.2383
     20 C          61.4325   88.1598   10.3207 C.3     1  UNL1        0.0343
     21 C          62.4621   87.3749   11.0782 C.3     1  UNL1        0.0046
     22 C          63.0503   88.2721   12.1264 C.3     1  UNL1        0.0223
     23 C          62.3844   89.6116   12.0168 C.3     1  UNL1        0.0993
@<TRIPOS>BOND
     1    18    17    1
     2    18    19    1
     3    18    20    1
     4    20    21    1
     5    21    22    1
     6    22    23    1
     7    23    15    1
     8    15     1    1
     9     1     2   ar
    10     2    10    1
    11    10    11   am
    12    10    12    2
    13     2     3   ar
    14     3     4   ar
    15     4     5   ar
    16     5     6   ar
    17     6     7   ar
    18     7     8   ar
    19     8     9   ar
    20    23    18    1
    21     9     1   ar
    22     9     5   ar
    23    15    16    1
    24    11    13    1
    25    11    14    1
@<TRIPOS>MOLECULE
*****
 23 25 0 0 0
SMALL
GASTEIGER

@<TRIPOS>ATOM
      1 C          63.7137   90.5745   13.8304 C.ar    1  UNL1        0.0685
      2 C          63.1476   90.4078   12.4513 C.ar    1  UNL1        0.0885
      3 C          63.7356   91.1712   11.3019 C.ar    1  UNL1        0.1263
      4 N          64.8897   92.1015   11.5314 N.ar    1  UNL1       -0.1633
      5 N          65.4558   92.2682   12.9104 N.ar    1  UNL1       -0.2270
      6 C          66.5821   93.1064   13.4384 C.ar    1  UNL1        0.1005
      7 C          66.6902   92.8610   14.9142 C.ar    1  UNL1        0.0223
      8 C          65.6307   91.8711   15.2984 C.ar    1  UNL1        0.0220
      9 C          64.8678   91.5047   14.0599 C.ar    1  UNL1        0.0961
     10 C          61.9934   89.4775   12.2219 C.2     1  UNL1        0.2456
     11 N          60.5945   89.9310   12.5175 N.am    1  UNL1       -0.3252
     12 O          62.2381   88.0940   11.6968 O.2     1  UNL1       -0.2703
     13 H          60.4339   90.8391   12.8622 H       1  UNL1        0.1453
     14 H          59.8370   89.3205   12.3669 H       1  UNL1        0.1453
     15 N          63.1256   89.8110   14.9799 N.pl3   1  UNL1       -0.3305
     16 H          62.4541   90.2360   15.5610 H       1  UNL1        0.1469
     17 C          62.7208   87.0252   17.7551 C.3     1  UNL1        0.0370
     18 C          63.2187   87.5839   16.4552 C.3     1  UNL1        0.1500
     19 F          62.4726   88.8142   16.8792 F       1  UNL1       -0.2383
     20 C          63.8608   86.2369   16.3029 C.3     1  UNL1        0.0343
     21 C          64.5995   86.2204   14.9976 C.3     1  UNL1        0.0046
     22 C          64.4140   87.5572   14.3431 C.3     1  UNL1        0.0223
     23 C          63.5607   88.3999   15.2439 C.3     1  UNL1        0.0993
@<TRIPOS>BOND
     1    18    17    1
     2    18    19    1
     3    18    20    1
     4    20    21    1
     5    21    22    1
     6    22    23    1
     7    23    15    1
     8    15     1    1
     9     1     2   ar
    10     2    10    1
    11    10    11   am
    12    10    12    2
    13     2     3   ar
    14     3     4   ar
    15     4     5   ar
    16     5     6   ar
    17     6     7   ar
    18     7     8   ar
    19     8     9   ar
    20    23    18    1
    21     9     1   ar
    22     9     5   ar
    23    15    16    1
    24    11    13    1
    25    11    14    1
@<TRIPOS>MOLECULE
*****
 23 25 0 0 0
SMALL
GASTEIGER

@<TRIPOS>ATOM
      1 C          61.6717   86.9803   10.2603 C.ar    1  UNL1        0.0685
      2 C          60.4032   87.7591   10.4456 C.ar    1  UNL1        0.0885
      3 C          59.3376   87.7191    9.3908 C.ar    1  UNL1        0.1263
      4 N          59.5405   86.9004    8.1504 N.ar    1  UNL1       -0.1633
      5 N          60.8089   86.1215    7.9650 N.ar    1  UNL1       -0.2270
      6 C          61.2875   85.2320    6.8561 C.ar    1  UNL1        0.1005
      7 C          62.6489   84.7221    7.2258 C.ar    1  UNL1        0.0223
      8 C          63.0117   85.2966    8.5631 C.ar    1  UNL1        0.0220
      9 C          61.8745   86.1615    9.0199 C.ar    1  UNL1        0.0961
     10 C          60.2003   88.5779   11.6861 C.2     1  UNL1        0.2456
     11 N          58.8905   88.5231   12.4149 N.am    1  UNL1       -0.3252
     12 O          61.3073   89.4513   12.1975 O.2     1  UNL1       -0.2703
     13 H          58.1640   87.9498   12.0792 H       1  UNL1        0.1453
     14 H          58.7573   89.0605   13.2290 H       1  UNL1        0.1453
     15 N          62.7373   87.0202   11.3152 N.pl3   1  UNL1       -0.3305
     16 H          63.3060   87.8182   11.4104 H       1  UNL1        0.1469
     17 C          64.4161   86.1799   14.7941 C.3     1  UNL1        0.0370
     18 C          63.6553   85.8600   13.5415 C.3     1  UNL1        0.1500
     19 F          63.8550   87.3150   13.2365 F       1  UNL1       -0.2383
     20 C          63.6146   84.4718   14.1083 C.3     1  UNL1        0.0343
     21 C          62.8705   83.5983   13.1423 C.3     1  UNL1        0.0046
     22 C          62.4512   84.4466   11.9785 C.3     1  UNL1        0.0223
     23 C          62.9363   85.8444   12.2252 C.3     1  UNL1        0.0993
@<TRIPOS>BOND
     1    18    17    1
     2    18    19    1
     3    18    20    1
     4    20    21    1
     5    21    22    1
     6    22    23    1
     7    23    15    1
     8    15     1    1
     9     1     2   ar
    10     2    10    1
    11    10    11   am
    12    10    12    2
    13     2     3   ar
    14     3     4   ar
    15     4     5   ar
    16     5     6   ar
    17     6     7   ar
    18     7     8   ar
    19     8     9   ar
    20    23    18    1
    21     9     1   ar
    22     9     5   ar
    23    15    16    1
    24    11    13    1
    25    11    14    1
@<TRIPOS>MOLECULE
*****
 23 25 0 0 0
SMALL
GASTEIGER

@<TRIPOS>ATOM
      1 C          63.9258   90.1804   13.0954 C.ar    1  UNL1        0.0685
      2 C          64.1220   90.1692   14.5825 C.ar    1  UNL1        0.0885
      3 C          64.8696   91.2859   15.2488 C.ar    1  UNL1        0.1263
      4 N          65.4210   92.4140   14.4280 N.ar    1  UNL1       -0.1633
      5 N          65.2248   92.4251   12.9410 N.ar    1  UNL1       -0.2270
      6 C          65.6508   93.3958   11.8797 C.ar    1  UNL1        0.1005
      7 C          65.1665   92.8789   10.5575 C.ar    1  UNL1        0.0223
      8 C          64.4412   91.5888   10.8015 C.ar    1  UNL1        0.0220
      9 C          64.4772   91.3084   12.2747 C.ar    1  UNL1        0.0961
     10 C          63.5706   89.0411   15.4032 C.2     1  UNL1        0.2456
     11 N          62.5529   89.3175   16.4699 N.am    1  UNL1       -0.3252
     12 O          64.0369   87.6369   15.1572 O.2     1  UNL1       -0.2703
     13 H          62.2469   90.2392   16.6313 H       1  UNL1        0.1453
     14 H          62.1910   88.5772   17.0086 H       1  UNL1        0.1453
     15 N          63.1782   89.0636   12.4291 N.pl3   1  UNL1       -0.3305
     16 H          63.4828   88.1337   12.5378 H       1  UNL1        0.1469
     17 C          61.3060   87.6446    9.2498 C.3     1  UNL1        0.0370
     18 C          61.5101   88.5925   10.3943 C.3     1  UNL1        0.1500
     19 F          62.7173   87.7471   10.6735 F       1  UNL1       -0.2383
     20 C          60.2602   89.2398    9.8757 C.3     1  UNL1        0.0343
     21 C          59.9443   90.4109   10.7582 C.3     1  UNL1        0.0046
     22 C          60.9989   90.4875   11.8220 C.3     1  UNL1        0.0223
     23 C          61.9666   89.3637   11.5971 C.3     1  UNL1        0.0993
@<TRIPOS>BOND
     1    18    17    1
     2    18    19    1
     3    18    20    1
     4    20    21    1
     5    21    22    1
     6    22    23    1
     7    23    15    1
     8    15     1    1
     9     1     2   ar
    10     2    10    1
    11    10    11   am
    12    10    12    2
    13     2     3   ar
    14     3     4   ar
    15     4     5   ar
    16     5     6   ar
    17     6     7   ar
    18     7     8   ar
    19     8     9   ar
    20    23    18    1
    21     9     1   ar
    22     9     5   ar
    23    15    16    1
    24    11    13    1
    25    11    14    1
@<TRIPOS>MOLECULE
*****
 23 25 0 0 0
SMALL
GASTEIGER

@<TRIPOS>ATOM
      1 C          61.8738   88.2528   11.2417 C.ar    1  UNL1        0.0685
      2 C          61.3413   89.1994   10.2070 C.ar    1  UNL1        0.0885
      3 C          61.8051   90.6256   10.1859 C.ar    1  UNL1        0.1263
      4 N          62.8014   91.1055   11.1994 N.ar    1  UNL1       -0.1633
      5 N          63.3338   90.1590   12.2341 N.ar    1  UNL1       -0.2270
      6 C          64.3166   90.3435   13.3522 C.ar    1  UNL1        0.1005
      7 C          64.4601   89.0312   14.0643 C.ar    1  UNL1        0.0223
      8 C          63.5661   88.0356   13.3864 C.ar    1  UNL1        0.0220
      9 C          62.8700   88.7326   12.2552 C.ar    1  UNL1        0.0961
     10 C          60.3450   88.7195    9.1935 C.2     1  UNL1        0.2456
     11 N          60.1185   89.5036    7.9350 N.am    1  UNL1       -0.3252
     12 O          59.5754   87.4556    9.4384 O.2     1  UNL1       -0.2703
     13 H          60.6237   90.3332    7.7742 H       1  UNL1        0.1453
     14 H          59.4647   89.1887    7.2697 H       1  UNL1        0.1453
     15 N          61.4100   86.8265   11.2628 N.pl3   1  UNL1       -0.3305
     16 H          60.5658   86.5899   11.7106 H       1  UNL1        0.1469
     17 C          63.2702   83.4679   12.2043 C.3     1  UNL1        0.0370
     18 C          62.8192   84.5551   11.2744 C.3     1  UNL1        0.1500
     19 F          62.1707   85.1204   12.5032 F       1  UNL1       -0.2383
     20 C          63.5620   83.7624   10.2401 C.3     1  UNL1        0.0343
     21 C          63.4344   84.4779    8.9280 C.3     1  UNL1        0.0046
     22 C          62.6128   85.7127    9.1513 C.3     1  UNL1        0.0223
     23 C          62.2325   85.7604   10.6015 C.3     1  UNL1        0.0993
@<TRIPOS>BOND
     1    18    17    1
     2    18    19    1
     3    18    20    1
     4    20    21    1
     5    21    22    1
     6    22    23    1
     7    23    15    1
     8    15     1    1
     9     1     2   ar
    10     2    10    1
    11    10    11   am
    12    10    12    2
    13     2     3   ar
    14     3     4   ar
    15     4     5   ar
    16     5     6   ar
    17     6     7   ar
    18     7     8   ar
    19     8     9   ar
    20    23    18    1
    21     9     1   ar
    22     9     5   ar
    23    15    16    1
    24    11    13    1
    25    11    14    1
@<TRIPOS>MOLECULE
*****
 23 25 0 0 0
SMALL
GASTEIGER

@<TRIPOS>ATOM
      1 C          64.0146   88.9012   13.5680 C.ar    1  UNL1        0.0685
      2 C          64.1387   90.3928   13.6670 C.ar    1  UNL1        0.0885
      3 C          63.4709   91.2701   12.6502 C.ar    1  UNL1        0.1263
      4 N          62.6788   90.6559   11.5341 N.ar    1  UNL1       -0.1633
      5 N          62.5546   89.1643   11.4351 N.ar    1  UNL1       -0.2270
      6 C          61.8451   88.2792   10.4537 C.ar    1  UNL1        0.1005
      7 C          62.0746   86.8548   10.8641 C.ar    1  UNL1        0.0223
      8 C          62.9258   86.8596   12.0992 C.ar    1  UNL1        0.0220
      9 C          63.2225   88.2870   12.4521 C.ar    1  UNL1        0.0961
     10 C          64.9308   91.0070   14.7831 C.2     1  UNL1        0.2456
     11 N          64.2417   91.4342   16.0450 N.am    1  UNL1       -0.3252
     12 O          66.4119   91.1938   14.6371 O.2     1  UNL1       -0.2703
     13 H          63.2696   91.3115   16.1408 H       1  UNL1        0.1453
     14 H          64.7615   91.8373   16.7775 H       1  UNL1        0.1453
     15 N          64.6825   88.0239   14.5850 N.pl3   1  UNL1       -0.3305
     16 H          65.6565   87.8844   14.5510 H       1  UNL1        0.1469
     17 C          63.5804   84.3894   15.6817 C.3     1  UNL1        0.0370
     18 C          63.6335   85.8841   15.7959 C.3     1  UNL1        0.1500
     19 F          64.4928   85.7897   14.5700 F       1  UNL1       -0.2383
     20 C          62.7631   85.6660   16.9979 C.3     1  UNL1        0.0343
     21 C          62.4581   87.0061   17.5986 C.3     1  UNL1        0.0046
     22 C          63.1399   88.0525   16.7679 C.3     1  UNL1        0.0223
     23 C          63.8664   87.3590   15.6537 C.3     1  UNL1        0.0993
@<TRIPOS>BOND
     1    18    17    1
     2    18    19    1
     3    18    20    1
     4    20    21    1
     5    21    22    1
     6    22    23    1
     7    23    15    1
     8    15     1    1
     9     1     2   ar
    10     2    10    1
    11    10    11   am
    12    10    12    2
    13     2     3   ar
    14     3     4   ar
    15     4     5   ar
    16     5     6   ar
    17     6     7   ar
    18     7     8   ar
    19     8     9   ar
    20    23    18    1
    21     9     1   ar
    22     9     5   ar
    23    15    16    1
    24    11    13    1
    25    11    14    1
