@<TRIPOS>MOLECULE
*****
 25 27 0 0 0
SMALL
GASTEIGER

@<TRIPOS>ATOM
      1 C          62.8349   84.2019   12.0463 C.ar    1  UNL1       -0.0157
      2 C          61.9221   85.2835   12.5430 C.ar    1  UNL1       -0.0038
      3 C          61.3153   86.2558   11.5753 C.ar    1  UNL1        0.0019
      4 C          61.6213   86.1464   10.1110 C.ar    1  UNL1        0.0275
      5 C          62.5341   85.0648    9.6143 C.ar    1  UNL1        0.1398
      6 F          62.8402   84.9554    8.1499 F       1  UNL1       -0.2042
      7 C          63.1409   84.0925   10.5820 C.ar    1  UNL1        0.0257
      8 C          61.0145   87.1187    9.1433 C.ar    1  UNL1        0.0021
      9 C          61.2051   88.5931    9.3425 C.ar    1  UNL1       -0.0003
     10 C          60.5983   89.5654    8.3749 C.ar    1  UNL1       -0.0043
     11 C          59.8008   89.0633    7.2079 C.ar    1  UNL1       -0.0225
     12 C          59.6101   87.5889    7.0086 C.ar    1  UNL1       -0.0043
     13 C          60.2170   86.6166    7.9763 C.ar    1  UNL1       -0.0003
     14 C          59.1940   90.0356    6.2402 C.3     1  UNL1        0.0223
     15 C          60.0777   90.9276    5.4197 C.3     1  UNL1        0.0044
     16 C          59.4709   91.8999    4.4521 C.3     1  UNL1        0.0003
     17 C          57.9804   91.9802    4.3048 C.3     1  UNL1        0.0000
     18 C          57.0966   91.0882    5.1253 C.3     1  UNL1        0.0003
     19 C          57.7034   90.1159    6.0930 C.3     1  UNL1        0.0044
     20 C          64.1411   84.3591   13.7104 C.3     1  UNL1        0.0100
     21 C          63.4417   83.2296   13.0140 C.3     1  UNL1        0.0509
     22 C          62.7424   82.1000   12.3176 C.3     1  UNL1        0.0100
     23 C          64.0486   82.2573   13.9817 C.2     1  UNL1        0.0534
     24 O          64.5122   82.7293   15.3278 O.co2   1  UNL1       -0.5489
     25 O          64.1917   80.8129   13.6033 O.co2   1  UNL1       -0.5489
@<TRIPOS>UNITY_ATOM_ATTR
24 1
charge -1
@<TRIPOS>BOND
     1    20    21    1
     2    21    22    1
     3    21    23    1
     4    23    24   ar
     5    23    25   ar
     6    21     1    1
     7     1     2   ar
     8     2     3   ar
     9     3     4   ar
    10     4     8    1
    11     8     9   ar
    12     9    10   ar
    13    10    11   ar
    14    11    14    1
    15    14    15    1
    16    15    16    1
    17    16    17    1
    18    17    18    1
    19    18    19    1
    20    11    12   ar
    21    12    13   ar
    22     4     5   ar
    23     5     6    1
    24     5     7   ar
    25     7     1   ar
    26    13     8   ar
    27    19    14    1
@<TRIPOS>MOLECULE
*****
 25 27 0 0 0
SMALL
GASTEIGER

@<TRIPOS>ATOM
      1 C          64.1081   89.2646   14.7130 C.ar    1  UNL1       -0.0157
      2 C          63.7315   89.0576   13.2760 C.ar    1  UNL1       -0.0038
      3 C          63.5426   87.6683   12.7428 C.ar    1  UNL1        0.0019
      4 C          63.7303   86.4861   13.6467 C.ar    1  UNL1        0.0275
      5 C          64.1069   86.6931   15.0838 C.ar    1  UNL1        0.1398
      6 F          64.2946   85.5109   15.9877 F       1  UNL1       -0.2042
      7 C          64.2958   88.0824   15.6169 C.ar    1  UNL1        0.0257
      8 C          63.5414   85.0968   13.1135 C.ar    1  UNL1        0.0021
      9 C          64.3001   83.9523   13.7170 C.ar    1  UNL1       -0.0003
     10 C          64.1112   82.5630   13.1838 C.ar    1  UNL1       -0.0043
     11 C          63.1636   82.3183   12.0471 C.ar    1  UNL1       -0.0225
     12 C          62.4049   83.4629   11.4436 C.ar    1  UNL1       -0.0043
     13 C          62.5938   84.8521   11.9768 C.ar    1  UNL1       -0.0003
     14 C          62.9747   80.9291   11.5139 C.3     1  UNL1        0.0223
     15 C          63.1086   80.6655   10.0434 C.3     1  UNL1        0.0044
     16 C          62.9197   79.2762    9.5102 C.3     1  UNL1        0.0003
     17 C          62.5969   78.1506   10.4475 C.3     1  UNL1        0.0000
     18 C          62.4631   78.4141   11.9181 C.3     1  UNL1        0.0003
     19 C          62.6520   79.8034   12.4513 C.3     1  UNL1        0.0044
     20 C          63.4737   90.3037   16.4502 C.3     1  UNL1        0.0100
     21 C          64.2970   90.6538   15.2462 C.3     1  UNL1        0.0509
     22 C          65.1203   91.0040   14.0422 C.3     1  UNL1        0.0100
     23 C          64.4859   92.0431   15.7794 C.2     1  UNL1        0.0534
     24 O          63.5310   92.5919   16.7976 O.co2   1  UNL1       -0.5489
     25 O          65.6298   92.8835   15.2944 O.co2   1  UNL1       -0.5489
@<TRIPOS>UNITY_ATOM_ATTR
24 1
charge -1
@<TRIPOS>BOND
     1    20    21    1
     2    21    22    1
     3    21    23    1
     4    23    24   ar
     5    23    25   ar
     6    21     1    1
     7     1     2   ar
     8     2     3   ar
     9     3     4   ar
    10     4     8    1
    11     8     9   ar
    12     9    10   ar
    13    10    11   ar
    14    11    14    1
    15    14    15    1
    16    15    16    1
    17    16    17    1
    18    17    18    1
    19    18    19    1
    20    11    12   ar
    21    12    13   ar
    22     4     5   ar
    23     5     6    1
    24     5     7   ar
    25     7     1   ar
    26    13     8   ar
    27    19    14    1
@<TRIPOS>MOLECULE
*****
 25 27 0 0 0
SMALL
GASTEIGER

@<TRIPOS>ATOM
      1 C          62.8187   84.3330   11.9267 C.ar    1  UNL1       -0.0157
      2 C          63.1098   84.2193   10.4596 C.ar    1  UNL1       -0.0038
      3 C          62.4874   85.1842    9.4945 C.ar    1  UNL1        0.0019
      4 C          61.5738   86.2628    9.9963 C.ar    1  UNL1        0.0275
      5 C          61.2827   86.3765   11.4634 C.ar    1  UNL1        0.1398
      6 F          60.3691   87.4552   11.9653 F       1  UNL1       -0.2042
      7 C          61.9051   85.4116   12.4286 C.ar    1  UNL1        0.0257
      8 C          60.9514   87.2277    9.0312 C.ar    1  UNL1        0.0021
      9 C          60.0450   86.7246    7.9471 C.ar    1  UNL1       -0.0003
     10 C          59.4225   87.6895    6.9819 C.ar    1  UNL1       -0.0043
     11 C          59.7065   89.1575    7.1009 C.ar    1  UNL1       -0.0225
     12 C          60.6129   89.6607    8.1849 C.ar    1  UNL1       -0.0043
     13 C          61.2353   88.6958    9.1501 C.ar    1  UNL1       -0.0003
     14 C          59.0841   90.1224    6.1357 C.3     1  UNL1        0.0223
     15 C          57.5923   90.1802    5.9898 C.3     1  UNL1        0.0044
     16 C          56.9699   91.1451    5.0247 C.3     1  UNL1        0.0003
     17 C          57.8392   92.0522    4.2054 C.3     1  UNL1        0.0000
     18 C          59.3309   91.9945    4.3512 C.3     1  UNL1        0.0003
     19 C          59.9534   91.0296    5.3164 C.3     1  UNL1        0.0044
     20 C          64.1840   82.7178   11.7626 C.3     1  UNL1        0.0100
     21 C          63.4411   83.3681   12.8918 C.3     1  UNL1        0.0509
     22 C          62.6982   84.0185   14.0211 C.3     1  UNL1        0.0100
     23 C          64.0635   82.4032   13.8570 C.2     1  UNL1        0.0534
     24 O          64.4281   81.0202   13.4049 O.co2   1  UNL1       -0.5489
     25 O          64.3215   82.8213   15.2742 O.co2   1  UNL1       -0.5489
@<TRIPOS>UNITY_ATOM_ATTR
24 1
charge -1
@<TRIPOS>BOND
     1    20    21    1
     2    21    22    1
     3    21    23    1
     4    23    24   ar
     5    23    25   ar
     6    21     1    1
     7     1     2   ar
     8     2     3   ar
     9     3     4   ar
    10     4     8    1
    11     8     9   ar
    12     9    10   ar
    13    10    11   ar
    14    11    14    1
    15    14    15    1
    16    15    16    1
    17    16    17    1
    18    17    18    1
    19    18    19    1
    20    11    12   ar
    21    12    13   ar
    22     4     5   ar
    23     5     6    1
    24     5     7   ar
    25     7     1   ar
    26    13     8   ar
    27    19    14    1
@<TRIPOS>MOLECULE
*****
 25 27 0 0 0
SMALL
GASTEIGER

@<TRIPOS>ATOM
      1 C          66.8075   92.1596   14.4157 C.ar    1  UNL1       -0.0157
      2 C          66.7081   92.5916   12.9827 C.ar    1  UNL1       -0.0038
      3 C          65.6747   91.9788   12.0846 C.ar    1  UNL1        0.0019
      4 C          64.7408   90.9340   12.6195 C.ar    1  UNL1        0.0275
      5 C          64.8402   90.5020   14.0524 C.ar    1  UNL1        0.1398
      6 F          63.9062   89.4572   14.5874 F       1  UNL1       -0.2042
      7 C          65.8736   91.1149   14.9505 C.ar    1  UNL1        0.0257
      8 C          63.7074   90.3212   11.7214 C.ar    1  UNL1        0.0021
      9 C          63.2125   88.9304   11.9872 C.ar    1  UNL1       -0.0003
     10 C          62.1791   88.3176   11.0891 C.ar    1  UNL1       -0.0043
     11 C          61.6406   89.0955    9.9252 C.ar    1  UNL1       -0.0225
     12 C          62.1355   90.4863    9.6593 C.ar    1  UNL1       -0.0043
     13 C          63.1689   91.0991   10.5574 C.ar    1  UNL1       -0.0003
     14 C          60.6073   88.4827    9.0271 C.3     1  UNL1        0.0223
     15 C          59.8943   89.3308    8.0160 C.3     1  UNL1        0.0044
     16 C          58.8609   88.7180    7.1179 C.3     1  UNL1        0.0003
     17 C          58.5405   87.2570    7.2309 C.3     1  UNL1        0.0000
     18 C          59.2534   86.4089    8.2420 C.3     1  UNL1        0.0003
     19 C          60.2868   87.0217    9.1401 C.3     1  UNL1        0.0044
     20 C          66.8155   92.9100   16.3998 C.3     1  UNL1        0.0100
     21 C          67.8409   92.7725   15.3137 C.3     1  UNL1        0.0509
     22 C          68.8663   92.6350   14.2277 C.3     1  UNL1        0.0100
     23 C          68.8743   93.3853   16.2118 C.2     1  UNL1        0.0534
     24 O          68.9440   94.8756   16.3674 O.co2   1  UNL1       -0.5489
     25 O          69.8380   92.5079   16.9544 O.co2   1  UNL1       -0.5489
@<TRIPOS>UNITY_ATOM_ATTR
24 1
charge -1
@<TRIPOS>BOND
     1    20    21    1
     2    21    22    1
     3    21    23    1
     4    23    24   ar
     5    23    25   ar
     6    21     1    1
     7     1     2   ar
     8     2     3   ar
     9     3     4   ar
    10     4     8    1
    11     8     9   ar
    12     9    10   ar
    13    10    11   ar
    14    11    14    1
    15    14    15    1
    16    15    16    1
    17    16    17    1
    18    17    18    1
    19    18    19    1
    20    11    12   ar
    21    12    13   ar
    22     4     5   ar
    23     5     6    1
    24     5     7   ar
    25     7     1   ar
    26    13     8   ar
    27    19    14    1
@<TRIPOS>MOLECULE
*****
 25 27 0 0 0
SMALL
GASTEIGER

@<TRIPOS>ATOM
      1 C          61.0890   88.6469    9.5012 C.ar    1  UNL1       -0.0157
      2 C          61.4024   90.1052    9.3429 C.ar    1  UNL1       -0.0038
      3 C          62.4249   90.7531   10.2287 C.ar    1  UNL1        0.0019
      4 C          63.1340   89.9427   11.2729 C.ar    1  UNL1        0.0275
      5 C          62.8206   88.4844   11.4313 C.ar    1  UNL1        0.1398
      6 F          63.5298   87.6740   12.4755 F       1  UNL1       -0.2042
      7 C          61.7981   87.8365   10.5454 C.ar    1  UNL1        0.0257
      8 C          64.1565   90.5906   12.1588 C.ar    1  UNL1        0.0021
      9 C          64.3529   90.0984   13.5620 C.ar    1  UNL1       -0.0003
     10 C          65.3754   90.7463   14.4478 C.ar    1  UNL1       -0.0043
     11 C          66.2015   91.8864   13.9305 C.ar    1  UNL1       -0.0225
     12 C          66.0050   92.3787   12.5272 C.ar    1  UNL1       -0.0043
     13 C          64.9826   91.7308   11.6414 C.ar    1  UNL1       -0.0003
     14 C          67.2240   92.5344   14.8163 C.3     1  UNL1        0.0223
     15 C          68.0627   91.6939   15.7329 C.3     1  UNL1        0.0044
     16 C          69.0852   92.3418   16.6188 C.3     1  UNL1        0.0003
     17 C          69.2690   93.8302   16.5880 C.3     1  UNL1        0.0000
     18 C          68.4303   94.6706   15.6714 C.3     1  UNL1        0.0003
     19 C          67.4078   94.0227   14.7855 C.3     1  UNL1        0.0044
     20 C          59.7921   89.3222    7.9644 C.3     1  UNL1        0.0100
     21 C          60.0665   87.9990    8.6154 C.3     1  UNL1        0.0509
     22 C          60.3409   86.6758    9.2664 C.3     1  UNL1        0.0100
     23 C          59.0440   87.3511    7.7296 C.2     1  UNL1        0.0534
     24 O          57.9276   88.1685    7.1504 O.co2   1  UNL1       -0.5489
     25 O          59.1380   85.8858    7.4228 O.co2   1  UNL1       -0.5489
@<TRIPOS>UNITY_ATOM_ATTR
24 1
charge -1
@<TRIPOS>BOND
     1    20    21    1
     2    21    22    1
     3    21    23    1
     4    23    24   ar
     5    23    25   ar
     6    21     1    1
     7     1     2   ar
     8     2     3   ar
     9     3     4   ar
    10     4     8    1
    11     8     9   ar
    12     9    10   ar
    13    10    11   ar
    14    11    14    1
    15    14    15    1
    16    15    16    1
    17    16    17    1
    18    17    18    1
    19    18    19    1
    20    11    12   ar
    21    12    13   ar
    22     4     5   ar
    23     5     6    1
    24     5     7   ar
    25     7     1   ar
    26    13     8   ar
    27    19    14    1
@<TRIPOS>MOLECULE
*****
 25 27 0 0 0
SMALL
GASTEIGER

@<TRIPOS>ATOM
      1 C          59.2898   89.6467    6.6460 C.ar    1  UNL1       -0.0157
      2 C          59.0442   88.1767    6.4775 C.ar    1  UNL1       -0.0038
      3 C          59.6819   87.1971    7.4176 C.ar    1  UNL1        0.0019
      4 C          60.5651   87.6876    8.5263 C.ar    1  UNL1        0.0275
      5 C          60.8107   89.1577    8.6948 C.ar    1  UNL1        0.1398
      6 F          61.6940   89.6483    9.8036 F       1  UNL1       -0.2042
      7 C          60.1731   90.1373    7.7547 C.ar    1  UNL1        0.0257
      8 C          61.2028   86.7080    9.4664 C.ar    1  UNL1        0.0021
      9 C          62.1560   85.6759    8.9411 C.ar    1  UNL1       -0.0003
     10 C          62.7936   84.6963    9.8812 C.ar    1  UNL1       -0.0043
     11 C          62.4780   84.7489   11.3467 C.ar    1  UNL1       -0.0225
     12 C          61.5248   85.7810   11.8720 C.ar    1  UNL1       -0.0043
     13 C          60.8872   86.7606   10.9319 C.ar    1  UNL1       -0.0003
     14 C          63.1157   83.7693   12.2868 C.3     1  UNL1        0.0223
     15 C          63.9027   84.2632   13.4643 C.3     1  UNL1        0.0044
     16 C          64.5403   83.2836   14.4045 C.3     1  UNL1        0.0003
     17 C          64.3910   81.8101   14.1671 C.3     1  UNL1        0.0000
     18 C          63.6040   81.3162   12.9895 C.3     1  UNL1        0.0003
     19 C          62.9664   82.2958   12.0494 C.3     1  UNL1        0.0044
     20 C          57.2951   90.1349    6.1143 C.3     1  UNL1        0.0100
     21 C          58.6522   90.6263    5.7059 C.3     1  UNL1        0.0509
     22 C          60.0093   91.1177    5.2975 C.3     1  UNL1        0.0100
     23 C          58.0145   91.6059    4.7658 C.2     1  UNL1        0.0534
     24 O          58.8497   92.3143    3.7408 O.co2   1  UNL1       -0.5489
     25 O          56.5417   91.8770    4.8506 O.co2   1  UNL1       -0.5489
@<TRIPOS>UNITY_ATOM_ATTR
24 1
charge -1
@<TRIPOS>BOND
     1    20    21    1
     2    21    22    1
     3    21    23    1
     4    23    24   ar
     5    23    25   ar
     6    21     1    1
     7     1     2   ar
     8     2     3   ar
     9     3     4   ar
    10     4     8    1
    11     8     9   ar
    12     9    10   ar
    13    10    11   ar
    14    11    14    1
    15    14    15    1
    16    15    16    1
    17    16    17    1
    18    17    18    1
    19    18    19    1
    20    11    12   ar
    21    12    13   ar
    22     4     5   ar
    23     5     6    1
    24     5     7   ar
    25     7     1   ar
    26    13     8   ar
    27    19    14    1
@<TRIPOS>MOLECULE
*****
 25 27 0 0 0
SMALL
GASTEIGER

@<TRIPOS>ATOM
      1 C          63.1122   81.6028   11.6722 C.ar    1  UNL1       -0.0157
      2 C          64.0369   82.5559   10.9746 C.ar    1  UNL1       -0.0038
      3 C          64.2655   83.9270   11.5383 C.ar    1  UNL1        0.0019
      4 C          63.5695   84.3451   12.7995 C.ar    1  UNL1        0.0275
      5 C          62.6449   83.3920   13.4971 C.ar    1  UNL1        0.1398
      6 F          61.9488   83.8100   14.7584 F       1  UNL1       -0.2042
      7 C          62.4162   82.0209   12.9334 C.ar    1  UNL1        0.0257
      8 C          63.7981   85.7162   13.3632 C.ar    1  UNL1        0.0021
      9 C          64.4617   85.8770   14.6988 C.ar    1  UNL1       -0.0003
     10 C          64.6903   87.2481   15.2624 C.ar    1  UNL1       -0.0043
     11 C          64.2554   88.4585   14.4906 C.ar    1  UNL1       -0.0225
     12 C          63.5919   88.2977   13.1550 C.ar    1  UNL1       -0.0043
     13 C          63.3632   86.9265   12.5913 C.ar    1  UNL1       -0.0003
     14 C          64.4841   89.8296   15.0542 C.3     1  UNL1        0.0223
     15 C          63.6493   90.3179   16.2008 C.3     1  UNL1        0.0044
     16 C          63.8779   91.6890   16.7645 C.3     1  UNL1        0.0003
     17 C          64.9413   92.5718   16.1816 C.3     1  UNL1        0.0000
     18 C          65.7761   92.0835   15.0350 C.3     1  UNL1        0.0003
     19 C          65.5475   90.7124   14.4714 C.3     1  UNL1        0.0044
     20 C          62.5224   79.7301   12.4752 C.3     1  UNL1        0.0100
     21 C          62.8836   80.2317   11.1085 C.3     1  UNL1        0.0509
     22 C          63.2448   80.7333    9.7418 C.3     1  UNL1        0.0100
     23 C          62.6549   78.8606   10.5448 C.2     1  UNL1        0.0534
     24 O          62.4293   78.6829    9.0726 O.co2   1  UNL1       -0.5489
     25 O          62.6519   77.6671   11.4533 O.co2   1  UNL1       -0.5489
@<TRIPOS>UNITY_ATOM_ATTR
24 1
charge -1
@<TRIPOS>BOND
     1    20    21    1
     2    21    22    1
     3    21    23    1
     4    23    24   ar
     5    23    25   ar
     6    21     1    1
     7     1     2   ar
     8     2     3   ar
     9     3     4   ar
    10     4     8    1
    11     8     9   ar
    12     9    10   ar
    13    10    11   ar
    14    11    14    1
    15    14    15    1
    16    15    16    1
    17    16    17    1
    18    17    18    1
    19    18    19    1
    20    11    12   ar
    21    12    13   ar
    22     4     5   ar
    23     5     6    1
    24     5     7   ar
    25     7     1   ar
    26    13     8   ar
    27    19    14    1
@<TRIPOS>MOLECULE
*****
 25 27 0 0 0
SMALL
GASTEIGER

@<TRIPOS>ATOM
      1 C          72.4035   79.9008   11.1920 C.ar    1  UNL1       -0.0157
      2 C          72.1328   78.5683   10.5587 C.ar    1  UNL1       -0.0038
      3 C          71.9490   77.3528   11.4182 C.ar    1  UNL1        0.0019
      4 C          72.0359   77.4698   12.9110 C.ar    1  UNL1        0.0275
      5 C          72.3066   78.8022   13.5444 C.ar    1  UNL1        0.1398
      6 F          72.3936   78.9193   15.0373 F       1  UNL1       -0.2042
      7 C          72.4905   80.0177   12.6849 C.ar    1  UNL1        0.0257
      8 C          71.8521   76.2543   13.7706 C.ar    1  UNL1        0.0021
      9 C          72.8527   75.1382   13.7151 C.ar    1  UNL1       -0.0003
     10 C          72.6689   73.9227   14.5746 C.ar    1  UNL1       -0.0043
     11 C          71.4845   73.8233   15.4896 C.ar    1  UNL1       -0.0225
     12 C          70.4839   74.9394   15.5451 C.ar    1  UNL1       -0.0043
     13 C          70.6677   76.1549   14.6856 C.ar    1  UNL1       -0.0003
     14 C          71.3007   72.6078   16.3491 C.3     1  UNL1        0.0223
     15 C          71.5802   71.2444   15.7897 C.3     1  UNL1        0.0044
     16 C          71.3964   70.0289   16.6492 C.3     1  UNL1        0.0003
     17 C          70.9331   70.1768   18.0681 C.3     1  UNL1        0.0000
     18 C          70.6535   71.5401   18.6275 C.3     1  UNL1        0.0003
     19 C          70.8373   72.7557   17.7680 C.3     1  UNL1        0.0044
     20 C          73.3246   81.7943   11.4490 C.3     1  UNL1        0.0100
     21 C          72.5873   81.1163   10.3325 C.3     1  UNL1        0.0509
     22 C          71.8500   80.4383    9.2160 C.3     1  UNL1        0.0100
     23 C          72.7711   82.3318    9.4730 C.2     1  UNL1        0.0534
     24 O          73.6318   82.2600    8.2466 O.co2   1  UNL1       -0.5489
     25 O          72.0943   83.6191    9.8399 O.co2   1  UNL1       -0.5489
@<TRIPOS>UNITY_ATOM_ATTR
24 1
charge -1
@<TRIPOS>BOND
     1    20    21    1
     2    21    22    1
     3    21    23    1
     4    23    24   ar
     5    23    25   ar
     6    21     1    1
     7     1     2   ar
     8     2     3   ar
     9     3     4   ar
    10     4     8    1
    11     8     9   ar
    12     9    10   ar
    13    10    11   ar
    14    11    14    1
    15    14    15    1
    16    15    16    1
    17    16    17    1
    18    17    18    1
    19    18    19    1
    20    11    12   ar
    21    12    13   ar
    22     4     5   ar
    23     5     6    1
    24     5     7   ar
    25     7     1   ar
    26    13     8   ar
    27    19    14    1
