@<TRIPOS>MOLECULE
*****
 36 39 0 0 0
SMALL
GASTEIGER

@<TRIPOS>ATOM
      1 C          64.5768   85.6372   14.5664 C.2     1  UNL1        0.2015
      2 O          66.0015   85.1965   14.7274 O.2     1  UNL1       -0.2864
      3 C          63.9676   86.5831   15.5585 C.ar    1  UNL1        0.0611
      4 C          63.2334   86.1975   16.8084 C.ar    1  UNL1        0.1037
      5 N          62.7978   87.4568   17.4972 N.ar    1  UNL1       -0.2269
      6 C          63.2627   88.6206   16.6730 C.ar    1  UNL1        0.1407
      7 N          63.1211   90.1023   16.8587 N.ar    1  UNL1       -0.3374
      8 C          63.7025   91.0440   15.8463 C.ar    1  UNL1        0.0735
      9 C          64.4255   90.5041   14.6481 C.ar    1  UNL1        0.0201
     10 C          64.5671   89.0224   14.4624 C.ar    1  UNL1        0.0047
     11 C          63.9857   88.0807   15.4748 C.ar    1  UNL1        0.0386
     12 H          62.6465   90.4567   17.6452 H       1  UNL1        0.1674
     13 C          65.0070   91.4459   13.6357 C.ar    1  UNL1        0.0398
     14 C          66.1961   92.2882   13.9910 C.ar    1  UNL1        0.1026
     15 N          66.7775   93.2300   12.9785 N.ar    1  UNL1       -0.2196
     16 C          66.1698   93.3294   11.6108 C.ar    1  UNL1        0.1901
     17 N          64.9806   92.4870   11.2555 N.ar    1  UNL1       -0.2196
     18 C          64.3992   91.5452   12.2679 C.ar    1  UNL1        0.1026
     19 S          66.7511   94.2711   10.5983 S.3     1  UNL1       -0.0748
     20 C          67.6143   93.7426    9.4913 C.3     1  UNL1        0.0772
     21 C          62.4103   85.5893   11.2416 C.ar    1  UNL1        0.0920
     22 C          62.1302   84.1218   11.1070 C.ar    1  UNL1        0.0204
     23 C          62.6656   83.1595   12.1255 C.ar    1  UNL1        0.0312
     24 C          63.4812   83.6646   13.2786 C.ar    1  UNL1        0.1454
     25 F          64.0166   82.7023   14.2971 F       1  UNL1       -0.2040
     26 C          63.7613   85.1321   13.4132 C.ar    1  UNL1        0.0951
     27 C          63.2259   86.0943   12.3947 C.ar    1  UNL1        0.1598
     28 F          63.5060   87.5618   12.5295 F       1  UNL1       -0.2026
     29 N          61.8749   86.5516   10.2231 N.pl3   1  UNL1       -0.2166
     30 H          61.7382   87.4966   10.4629 H       1  UNL1        0.1734
     31 S          61.5478   86.0740    8.8393 S.O2    1  UNL1        0.0540
     32 O          63.0039   85.8217    8.5822 O.2     1  UNL1       -0.1545
     33 O          60.0917   86.3263    9.0965 O.2     1  UNL1       -0.1545
     34 C          61.2206   85.5964    7.4556 C.3     1  UNL1        0.1724
     35 C          61.8265   84.1198    5.4055 C.3     1  UNL1        0.0019
     36 C          62.2303   84.8068    6.6763 C.3     1  UNL1        0.0273
@<TRIPOS>BOND
     1    35    36    1
     2    36    34    1
     3    34    31    1
     4    31    32    2
     5    31    33    2
     6    31    29    1
     7    29    21    1
     8    21    22   ar
     9    22    23   ar
    10    23    24   ar
    11    24    25    1
    12    24    26   ar
    13    26     1    1
    14     1     2    2
    15     1     3    1
    16     3     4   ar
    17     4     5   ar
    18     5     6   ar
    19     6     7   ar
    20     7     8   ar
    21     8     9   ar
    22     9    13    1
    23    13    14   ar
    24    14    15   ar
    25    15    16   ar
    26    16    19    1
    27    19    20    1
    28    16    17   ar
    29    17    18   ar
    30     9    10   ar
    31    10    11   ar
    32    26    27   ar
    33    27    28    1
    34    27    21   ar
    35    11     3   ar
    36    11     6    1
    37    18    13   ar
    38    29    30    1
    39     7    12    1
@<TRIPOS>MOLECULE
*****
 36 39 0 0 0
SMALL
GASTEIGER

@<TRIPOS>ATOM
      1 C          64.7038   85.6384   14.7042 C.2     1  UNL1        0.2015
      2 O          66.1813   85.4049   14.8141 O.2     1  UNL1       -0.2864
      3 C          64.0332   86.6358   15.6017 C.ar    1  UNL1        0.0611
      4 C          63.2508   86.3199   16.8418 C.ar    1  UNL1        0.1037
      5 N          62.7614   87.6132   17.4231 N.ar    1  UNL1       -0.2269
      6 C          63.2414   88.7284   16.5423 C.ar    1  UNL1        0.1407
      7 N          63.0642   90.2158   16.6198 N.ar    1  UNL1       -0.3374
      8 C          63.6731   91.0993   15.5716 C.ar    1  UNL1        0.0735
      9 C          64.4592   90.4952   14.4459 C.ar    1  UNL1        0.0201
     10 C          64.6363   89.0078   14.3683 C.ar    1  UNL1        0.0047
     11 C          64.0274   88.1244   15.4165 C.ar    1  UNL1        0.0386
     12 H          62.5483   90.6123   17.3587 H       1  UNL1        0.1674
     13 C          65.0681   91.3787   13.3976 C.ar    1  UNL1        0.0398
     14 C          64.3769   91.5644   12.0794 C.ar    1  UNL1        0.1026
     15 N          64.9859   92.4479   11.0312 N.ar    1  UNL1       -0.2196
     16 C          66.2859   93.1457   11.3013 C.ar    1  UNL1        0.1901
     17 N          66.9771   92.9600   12.6196 N.ar    1  UNL1       -0.2196
     18 C          66.3681   92.0765   13.6677 C.ar    1  UNL1        0.1026
     19 S          66.8948   94.0292   10.2531 S.3     1  UNL1       -0.0748
     20 C          67.8945   93.4668    9.2865 C.3     1  UNL1        0.0772
     21 C          62.4915   84.8220   11.5120 C.ar    1  UNL1        0.0920
     22 C          62.2825   83.3464   11.6819 C.ar    1  UNL1        0.0204
     23 C          62.8805   82.6348   12.8591 C.ar    1  UNL1        0.0312
     24 C          63.6876   83.3987   13.8666 C.ar    1  UNL1        0.1454
     25 F          64.2856   82.6871   15.0438 F       1  UNL1       -0.2040
     26 C          63.8966   84.8743   13.6967 C.ar    1  UNL1        0.0951
     27 C          63.2986   85.5860   12.5195 C.ar    1  UNL1        0.1598
     28 F          63.5077   87.0616   12.3497 F       1  UNL1       -0.2026
     29 N          61.8935   85.5337   10.3348 N.pl3   1  UNL1       -0.2166
     30 H          61.7159   85.0419    9.5005 H       1  UNL1        0.1734
     31 S          61.5660   86.9944   10.4286 S.O2    1  UNL1        0.0540
     32 O          60.6513   86.7152   11.5842 O.2     1  UNL1       -0.1545
     33 O          62.4806   87.2737    9.2729 O.2     1  UNL1       -0.1545
     34 C          61.2385   88.4552   10.5223 C.3     1  UNL1        0.1724
     35 C          59.6840   90.3638   11.3536 C.3     1  UNL1        0.0019
     36 C          60.0100   88.9028   11.2573 C.3     1  UNL1        0.0273
@<TRIPOS>BOND
     1    35    36    1
     2    36    34    1
     3    34    31    1
     4    31    32    2
     5    31    33    2
     6    31    29    1
     7    29    21    1
     8    21    22   ar
     9    22    23   ar
    10    23    24   ar
    11    24    25    1
    12    24    26   ar
    13    26     1    1
    14     1     2    2
    15     1     3    1
    16     3     4   ar
    17     4     5   ar
    18     5     6   ar
    19     6     7   ar
    20     7     8   ar
    21     8     9   ar
    22     9    13    1
    23    13    14   ar
    24    14    15   ar
    25    15    16   ar
    26    16    19    1
    27    19    20    1
    28    16    17   ar
    29    17    18   ar
    30     9    10   ar
    31    10    11   ar
    32    26    27   ar
    33    27    28    1
    34    27    21   ar
    35    11     3   ar
    36    11     6    1
    37    18    13   ar
    38    29    30    1
    39     7    12    1
@<TRIPOS>MOLECULE
*****
 36 39 0 0 0
SMALL
GASTEIGER

@<TRIPOS>ATOM
      1 C          62.7022   85.5722    9.2050 C.2     1  UNL1        0.2015
      2 O          63.5689   85.4465    7.9872 O.2     1  UNL1       -0.2864
      3 C          61.5468   86.5287    9.2078 C.ar    1  UNL1        0.0611
      4 C          60.1730   86.2535    8.6722 C.ar    1  UNL1        0.1037
      5 N          59.3395   87.4832    8.8802 N.ar    1  UNL1       -0.2269
      6 C          60.1982   88.5184    9.5443 C.ar    1  UNL1        0.1407
      7 N          59.9142   89.9219    9.9908 N.ar    1  UNL1       -0.3374
      8 C          60.9943   90.7355   10.6398 C.ar    1  UNL1        0.0735
      9 C          62.3585   90.1456   10.8423 C.ar    1  UNL1        0.0201
     10 C          62.6426   88.7421   10.3958 C.ar    1  UNL1        0.0047
     11 C          61.5624   87.9285    9.7468 C.ar    1  UNL1        0.0386
     12 H          59.0188   90.3090    9.8579 H       1  UNL1        0.1674
     13 C          63.4387   90.9594   11.4913 C.ar    1  UNL1        0.0398
     14 C          63.6958   90.8268   12.9631 C.ar    1  UNL1        0.1026
     15 N          64.7760   91.6405   13.6121 N.ar    1  UNL1       -0.2196
     16 C          65.5990   92.5868   12.7892 C.ar    1  UNL1        0.1901
     17 N          65.3419   92.7193   11.3173 N.ar    1  UNL1       -0.2196
     18 C          64.2618   91.9056   10.6684 C.ar    1  UNL1        0.1026
     19 S          66.6792   93.4005   13.4381 S.3     1  UNL1       -0.0748
     20 C          66.8786   93.3337   14.9233 C.3     1  UNL1        0.0772
     21 C          62.6392   84.2529   12.9474 C.ar    1  UNL1        0.0920
     22 C          63.5684   83.0794   12.8499 C.ar    1  UNL1        0.0204
     23 C          64.2089   82.7368   11.5375 C.ar    1  UNL1        0.0312
     24 C          63.9202   83.5677   10.3225 C.ar    1  UNL1        0.1454
     25 F          64.5606   83.2251    9.0101 F       1  UNL1       -0.2040
     26 C          62.9910   84.7412   10.4200 C.ar    1  UNL1        0.0951
     27 C          62.3505   85.0837   11.7324 C.ar    1  UNL1        0.1598
     28 F          61.4213   86.2573   11.8298 F       1  UNL1       -0.2026
     29 N          61.9988   84.5954   14.2598 N.pl3   1  UNL1       -0.2166
     30 H          61.0439   84.4053   14.4061 H       1  UNL1        0.1734
     31 S          62.8131   85.2276   15.3494 S.O2    1  UNL1        0.0540
     32 O          62.1732   84.3177   16.3556 O.2     1  UNL1       -0.1545
     33 O          63.4531   86.1374   14.3431 O.2     1  UNL1       -0.1545
     34 C          63.6275   85.8598   16.4389 C.3     1  UNL1        0.1724
     35 C          63.0361   88.2915   17.1369 C.3     1  UNL1        0.0019
     36 C          62.9830   86.8155   17.3987 C.3     1  UNL1        0.0273
@<TRIPOS>BOND
     1    35    36    1
     2    36    34    1
     3    34    31    1
     4    31    32    2
     5    31    33    2
     6    31    29    1
     7    29    21    1
     8    21    22   ar
     9    22    23   ar
    10    23    24   ar
    11    24    25    1
    12    24    26   ar
    13    26     1    1
    14     1     2    2
    15     1     3    1
    16     3     4   ar
    17     4     5   ar
    18     5     6   ar
    19     6     7   ar
    20     7     8   ar
    21     8     9   ar
    22     9    13    1
    23    13    14   ar
    24    14    15   ar
    25    15    16   ar
    26    16    19    1
    27    19    20    1
    28    16    17   ar
    29    17    18   ar
    30     9    10   ar
    31    10    11   ar
    32    26    27   ar
    33    27    28    1
    34    27    21   ar
    35    11     3   ar
    36    11     6    1
    37    18    13   ar
    38    29    30    1
    39     7    12    1
@<TRIPOS>MOLECULE
*****
 36 39 0 0 0
SMALL
GASTEIGER

@<TRIPOS>ATOM
      1 C          64.7734   85.8523   14.6375 C.2     1  UNL1        0.2015
      2 O          66.2489   85.6132   14.7625 O.2     1  UNL1       -0.2864
      3 C          64.0823   86.7879   15.5846 C.ar    1  UNL1        0.0611
      4 C          63.3054   86.3920   16.8052 C.ar    1  UNL1        0.1037
      5 N          62.7897   87.6431   17.4523 N.ar    1  UNL1       -0.2269
      6 C          63.2479   88.8122   16.6317 C.ar    1  UNL1        0.1407
      7 N          63.0408   90.2897   16.7865 N.ar    1  UNL1       -0.3374
      8 C          63.6326   91.2387   15.7870 C.ar    1  UNL1        0.0735
      9 C          64.4315   90.7101   14.6326 C.ar    1  UNL1        0.0201
     10 C          64.6385   89.2326   14.4779 C.ar    1  UNL1        0.0047
     11 C          64.0467   88.2837   15.4774 C.ar    1  UNL1        0.0386
     12 H          62.5165   90.6366   17.5441 H       1  UNL1        0.1674
     13 C          65.0233   91.6592   13.6330 C.ar    1  UNL1        0.0398
     14 C          64.5213   91.6690   12.2196 C.ar    1  UNL1        0.1026
     15 N          65.1131   92.6180   11.2200 N.ar    1  UNL1       -0.2196
     16 C          66.2070   93.5573   11.6340 C.ar    1  UNL1        0.1901
     17 N          66.7089   93.5475   13.0475 N.ar    1  UNL1       -0.2196
     18 C          66.1171   92.5985   14.0470 C.ar    1  UNL1        0.1026
     19 S          66.7988   94.5063   10.6345 S.3     1  UNL1       -0.0748
     20 C          66.4707   95.9684   10.7030 C.3     1  UNL1        0.0772
     21 C          63.1251   82.9615   12.4749 C.ar    1  UNL1        0.0920
     22 C          62.4202   83.7628   11.4209 C.ar    1  UNL1        0.0204
     23 C          62.4996   85.2606   11.4391 C.ar    1  UNL1        0.0312
     24 C          63.2840   85.9571   12.5112 C.ar    1  UNL1        0.1454
     25 F          63.3635   87.4549   12.5294 F       1  UNL1       -0.2040
     26 C          63.9890   85.1558   13.5653 C.ar    1  UNL1        0.0951
     27 C          63.9095   83.6580   13.5471 C.ar    1  UNL1        0.1598
     28 F          64.6145   82.8568   14.6012 F       1  UNL1       -0.2026
     29 N          63.0457   81.4637   12.4568 N.pl3   1  UNL1       -0.2166
     30 H          63.6414   80.9463   11.8681 H       1  UNL1        0.1734
     31 S          62.0585   80.7543   13.3355 S.O2    1  UNL1        0.0540
     32 O          62.3949   79.4555   12.6649 O.2     1  UNL1       -0.1545
     33 O          61.7220   82.0532   14.0061 O.2     1  UNL1       -0.1545
     34 C          61.0712   80.0451   14.2143 C.3     1  UNL1        0.1724
     35 C          58.5742   79.4825   14.6602 C.3     1  UNL1        0.0019
     36 C          59.6257   80.4451   14.1934 C.3     1  UNL1        0.0273
@<TRIPOS>BOND
     1    35    36    1
     2    36    34    1
     3    34    31    1
     4    31    32    2
     5    31    33    2
     6    31    29    1
     7    29    21    1
     8    21    22   ar
     9    22    23   ar
    10    23    24   ar
    11    24    25    1
    12    24    26   ar
    13    26     1    1
    14     1     2    2
    15     1     3    1
    16     3     4   ar
    17     4     5   ar
    18     5     6   ar
    19     6     7   ar
    20     7     8   ar
    21     8     9   ar
    22     9    13    1
    23    13    14   ar
    24    14    15   ar
    25    15    16   ar
    26    16    19    1
    27    19    20    1
    28    16    17   ar
    29    17    18   ar
    30     9    10   ar
    31    10    11   ar
    32    26    27   ar
    33    27    28    1
    34    27    21   ar
    35    11     3   ar
    36    11     6    1
    37    18    13   ar
    38    29    30    1
    39     7    12    1
@<TRIPOS>MOLECULE
*****
 36 39 0 0 0
SMALL
GASTEIGER

@<TRIPOS>ATOM
      1 C          63.1733   90.3382   13.6649 C.2     1  UNL1        0.2015
      2 O          62.3998   89.7584   14.8117 O.2     1  UNL1       -0.2864
      3 C          62.7552   90.0462   12.2542 C.ar    1  UNL1        0.0611
      4 C          62.4173   91.0646   11.2060 C.ar    1  UNL1        0.1037
      5 N          62.0549   90.3323    9.9481 N.ar    1  UNL1       -0.2269
      6 C          62.1688   88.8613   10.2189 C.ar    1  UNL1        0.1407
      7 N          61.9343   87.6601    9.3517 N.ar    1  UNL1       -0.3374
      8 C          62.1327   86.2820    9.9099 C.ar    1  UNL1        0.0735
      9 C          62.5655   86.1052   11.3351 C.ar    1  UNL1        0.0201
     10 C          62.8000   87.3064   12.2023 C.ar    1  UNL1        0.0047
     11 C          62.6016   88.6845   11.6441 C.ar    1  UNL1        0.0386
     12 H          61.6502   87.7761    8.4163 H       1  UNL1        0.1674
     13 C          62.7639   84.7270   11.8932 C.ar    1  UNL1        0.0398
     14 C          62.5955   84.4819   13.3634 C.ar    1  UNL1        0.1026
     15 N          62.7938   83.1037   13.9216 N.ar    1  UNL1       -0.2196
     16 C          63.1606   81.9708   13.0094 C.ar    1  UNL1        0.1901
     17 N          63.3290   82.2160   11.5391 N.ar    1  UNL1       -0.2196
     18 C          63.1306   83.5941   10.9811 C.ar    1  UNL1        0.1026
     19 S          63.3589   80.5927   13.5675 S.3     1  UNL1       -0.0748
     20 C          62.2278   79.6077   13.5527 C.3     1  UNL1        0.0772
     21 C          66.3301   92.6624   13.0455 C.ar    1  UNL1        0.0920
     22 C          66.7486   92.9538   14.4562 C.ar    1  UNL1        0.0204
     23 C          65.9755   92.3734   15.6030 C.ar    1  UNL1        0.0312
     24 C          64.7837   91.5015   15.3393 C.ar    1  UNL1        0.1454
     25 F          64.0105   90.9211   16.4862 F       1  UNL1       -0.2040
     26 C          64.3652   91.2101   13.9287 C.ar    1  UNL1        0.0951
     27 C          65.1383   91.7906   12.7818 C.ar    1  UNL1        0.1598
     28 F          64.7197   91.4991   11.3712 F       1  UNL1       -0.2026
     29 N          67.1033   93.2429   11.8987 N.pl3   1  UNL1       -0.2166
     30 H          67.9968   92.8923   11.6798 H       1  UNL1        0.1734
     31 S          66.5150   94.3575   11.0853 S.O2    1  UNL1        0.0540
     32 O          66.2182   95.1188   12.3432 O.2     1  UNL1       -0.1545
     33 O          66.8118   93.5961    9.8274 O.2     1  UNL1       -0.1545
     34 C          65.9268   95.4720   10.2719 C.3     1  UNL1        0.1724
     35 C          67.2171   96.8559    8.4913 C.3     1  UNL1        0.0019
     36 C          66.7674   96.6601    9.9089 C.3     1  UNL1        0.0273
@<TRIPOS>BOND
     1    35    36    1
     2    36    34    1
     3    34    31    1
     4    31    32    2
     5    31    33    2
     6    31    29    1
     7    29    21    1
     8    21    22   ar
     9    22    23   ar
    10    23    24   ar
    11    24    25    1
    12    24    26   ar
    13    26     1    1
    14     1     2    2
    15     1     3    1
    16     3     4   ar
    17     4     5   ar
    18     5     6   ar
    19     6     7   ar
    20     7     8   ar
    21     8     9   ar
    22     9    13    1
    23    13    14   ar
    24    14    15   ar
    25    15    16   ar
    26    16    19    1
    27    19    20    1
    28    16    17   ar
    29    17    18   ar
    30     9    10   ar
    31    10    11   ar
    32    26    27   ar
    33    27    28    1
    34    27    21   ar
    35    11     3   ar
    36    11     6    1
    37    18    13   ar
    38    29    30    1
    39     7    12    1
@<TRIPOS>MOLECULE
*****
 36 39 0 0 0
SMALL
GASTEIGER

@<TRIPOS>ATOM
      1 C          64.3078   90.5022   14.3619 C.2     1  UNL1        0.2015
      2 O          63.3289   91.2410   15.2256 O.2     1  UNL1       -0.2864
      3 C          64.2371   89.0075   14.2578 C.ar    1  UNL1        0.0611
      4 C          64.8747   88.0271   15.1971 C.ar    1  UNL1        0.1037
      5 N          64.5481   86.6445   14.7159 N.ar    1  UNL1       -0.2269
      6 C          63.7088   86.7703   13.4790 C.ar    1  UNL1        0.1407
      7 N          63.0947   85.7438   12.5741 N.ar    1  UNL1       -0.3374
      8 C          62.2884   86.1776   11.3860 C.ar    1  UNL1        0.0735
      9 C          62.0962   87.6381   11.1029 C.ar    1  UNL1        0.0201
     10 C          62.7103   88.6647   12.0078 C.ar    1  UNL1        0.0047
     11 C          63.5166   88.2308   13.1959 C.ar    1  UNL1        0.0386
     12 H          63.2208   84.7852   12.7599 H       1  UNL1        0.1674
     13 C          61.2899   88.0720    9.9147 C.ar    1  UNL1        0.0398
     14 C          60.9657   89.5232    9.7177 C.ar    1  UNL1        0.1026
     15 N          60.1594   89.9570    8.5296 N.ar    1  UNL1       -0.2196
     16 C          59.6772   88.9396    7.5384 C.ar    1  UNL1        0.1901
     17 N          60.0014   87.4883    7.7355 N.ar    1  UNL1       -0.2196
     18 C          60.8077   87.0545    8.9236 C.ar    1  UNL1        0.1026
     19 S          58.8709   89.3734    6.3503 S.3     1  UNL1       -0.0748
     20 C          59.2816   90.5850    5.5672 C.3     1  UNL1        0.0772
     21 C          66.0533   92.7014   11.5571 C.ar    1  UNL1        0.0920
     22 C          67.4564   92.7702   12.0832 C.ar    1  UNL1        0.0204
     23 C          67.8099   92.0830   13.3688 C.ar    1  UNL1        0.0312
     24 C          66.7604   91.3270   14.1284 C.ar    1  UNL1        0.1454
     25 F          67.1139   90.6397   15.4139 F       1  UNL1       -0.2040
     26 C          65.3574   91.2582   13.6023 C.ar    1  UNL1        0.0951
     27 C          65.0039   91.9455   12.3167 C.ar    1  UNL1        0.1598
     28 F          63.6008   91.8767   11.7908 F       1  UNL1       -0.2026
     29 N          65.6998   93.3887   10.2716 N.pl3   1  UNL1       -0.2166
     30 H          64.9751   93.0344    9.7071 H       1  UNL1        0.1734
     31 S          66.4505   94.6156    9.8460 S.O2    1  UNL1        0.0540
     32 O          65.6167   95.4478   10.7745 O.2     1  UNL1       -0.1545
     33 O          67.2843   93.7834    8.9174 O.2     1  UNL1       -0.1545
     34 C          67.2012   95.8425    9.4203 C.3     1  UNL1        0.1724
     35 C          65.6988   96.6912    7.4779 C.3     1  UNL1        0.0019
     36 C          67.0579   96.3614    8.0202 C.3     1  UNL1        0.0273
@<TRIPOS>BOND
     1    35    36    1
     2    36    34    1
     3    34    31    1
     4    31    32    2
     5    31    33    2
     6    31    29    1
     7    29    21    1
     8    21    22   ar
     9    22    23   ar
    10    23    24   ar
    11    24    25    1
    12    24    26   ar
    13    26     1    1
    14     1     2    2
    15     1     3    1
    16     3     4   ar
    17     4     5   ar
    18     5     6   ar
    19     6     7   ar
    20     7     8   ar
    21     8     9   ar
    22     9    13    1
    23    13    14   ar
    24    14    15   ar
    25    15    16   ar
    26    16    19    1
    27    19    20    1
    28    16    17   ar
    29    17    18   ar
    30     9    10   ar
    31    10    11   ar
    32    26    27   ar
    33    27    28    1
    34    27    21   ar
    35    11     3   ar
    36    11     6    1
    37    18    13   ar
    38    29    30    1
    39     7    12    1
@<TRIPOS>MOLECULE
*****
 36 39 0 0 0
SMALL
GASTEIGER

@<TRIPOS>ATOM
      1 C          63.7795   83.7379   12.7567 C.2     1  UNL1        0.2015
      2 O          64.7246   82.5819   12.6149 O.2     1  UNL1       -0.2864
      3 C          63.3887   84.2243   14.1207 C.ar    1  UNL1        0.0611
      4 C          62.8342   83.3826   15.2316 C.ar    1  UNL1        0.1037
      5 N          62.5866   84.2760   16.4108 N.ar    1  UNL1       -0.2269
      6 C          62.9880   85.6699   16.0287 C.ar    1  UNL1        0.1407
      7 N          62.9662   86.9640   16.7868 N.ar    1  UNL1       -0.3374
      8 C          63.4401   88.2262   16.1294 C.ar    1  UNL1        0.0735
      9 C          63.9358   88.1943   14.7141 C.ar    1  UNL1        0.0201
     10 C          63.9576   86.9002   13.9560 C.ar    1  UNL1        0.0047
     11 C          63.4837   85.6379   14.6134 C.ar    1  UNL1        0.0386
     12 H          62.6409   86.9849   17.7157 H       1  UNL1        0.1674
     13 C          64.4097   89.4567   14.0567 C.ar    1  UNL1        0.0398
     14 C          65.5259   90.2485   14.6707 C.ar    1  UNL1        0.1026
     15 N          65.9998   91.5109   14.0133 N.ar    1  UNL1       -0.2196
     16 C          65.3575   91.9812   12.7420 C.ar    1  UNL1        0.1901
     17 N          64.2412   91.1893   12.1281 N.ar    1  UNL1       -0.2196
     18 C          63.7674   89.9270   12.7854 C.ar    1  UNL1        0.1026
     19 S          65.8313   93.2435   12.0847 S.3     1  UNL1       -0.0748
     20 C          66.3327   93.2105   10.6714 C.3     1  UNL1        0.0772
     21 C          61.5087   86.0181   10.4340 C.ar    1  UNL1        0.0920
     22 C          62.1161   85.7469    9.0896 C.ar    1  UNL1        0.0204
     23 C          63.2779   84.8060    8.9675 C.ar    1  UNL1        0.0312
     24 C          63.8324   84.1364   10.1898 C.ar    1  UNL1        0.1454
     25 F          64.9942   83.1955   10.0677 F       1  UNL1       -0.2040
     26 C          63.2250   84.4076   11.5342 C.ar    1  UNL1        0.0951
     27 C          62.0632   85.3485   11.6563 C.ar    1  UNL1        0.1598
     28 F          61.4558   85.6196   13.0008 F       1  UNL1       -0.2026
     29 N          60.3469   86.9590   10.5561 N.pl3   1  UNL1       -0.2166
     30 H          59.7136   86.8647   11.3039 H       1  UNL1        0.1734
     31 S          60.1500   88.0435    9.5387 S.O2    1  UNL1        0.0540
     32 O          59.1636   87.1803    8.8094 O.2     1  UNL1       -0.1545
     33 O          61.1364   88.9067   10.2680 O.2     1  UNL1       -0.1545
     34 C          59.9531   89.1280    8.5214 C.3     1  UNL1        0.1724
     35 C          59.2928   89.8462    6.1133 C.3     1  UNL1        0.0019
     36 C          59.3273   88.8086    7.1961 C.3     1  UNL1        0.0273
@<TRIPOS>BOND
     1    35    36    1
     2    36    34    1
     3    34    31    1
     4    31    32    2
     5    31    33    2
     6    31    29    1
     7    29    21    1
     8    21    22   ar
     9    22    23   ar
    10    23    24   ar
    11    24    25    1
    12    24    26   ar
    13    26     1    1
    14     1     2    2
    15     1     3    1
    16     3     4   ar
    17     4     5   ar
    18     5     6   ar
    19     6     7   ar
    20     7     8   ar
    21     8     9   ar
    22     9    13    1
    23    13    14   ar
    24    14    15   ar
    25    15    16   ar
    26    16    19    1
    27    19    20    1
    28    16    17   ar
    29    17    18   ar
    30     9    10   ar
    31    10    11   ar
    32    26    27   ar
    33    27    28    1
    34    27    21   ar
    35    11     3   ar
    36    11     6    1
    37    18    13   ar
    38    29    30    1
    39     7    12    1
@<TRIPOS>MOLECULE
*****
 36 39 0 0 0
SMALL
GASTEIGER

@<TRIPOS>ATOM
      1 C          65.2835   90.9798   13.7145 C.2     1  UNL1        0.2015
      2 O          66.7825   91.0284   13.6933 O.2     1  UNL1       -0.2864
      3 C          64.5589   90.7440   15.0065 C.ar    1  UNL1        0.0611
      4 C          64.1871   91.7923   16.0130 C.ar    1  UNL1        0.1037
      5 N          63.4773   91.1146   17.1474 N.ar    1  UNL1       -0.2269
      6 C          63.4104   89.6475   16.8421 C.ar    1  UNL1        0.1407
      7 N          62.8271   88.4906   17.5979 N.ar    1  UNL1       -0.3374
      8 C          62.9123   87.1047   17.0306 C.ar    1  UNL1        0.0735
      9 C          63.5808   86.8756   15.7075 C.ar    1  UNL1        0.0201
     10 C          64.1640   88.0325   14.9516 C.ar    1  UNL1        0.0047
     11 C          64.0788   89.4185   15.5189 C.ar    1  UNL1        0.0386
     12 H          62.3884   88.6409   18.4663 H       1  UNL1        0.1674
     13 C          63.6660   85.4896   15.1402 C.ar    1  UNL1        0.0398
     14 C          64.8066   85.1162   14.2406 C.ar    1  UNL1        0.1026
     15 N          64.8918   83.7302   13.6733 N.ar    1  UNL1       -0.2196
     16 C          63.8363   82.7176   14.0057 C.ar    1  UNL1        0.1901
     17 N          62.6955   83.0911   14.9053 N.ar    1  UNL1       -0.2196
     18 C          62.6104   84.4770   15.4726 C.ar    1  UNL1        0.1026
     19 S          63.9214   81.3316   13.4384 S.3     1  UNL1       -0.0748
     20 C          62.7930   80.3656   13.6464 C.3     1  UNL1        0.0772
     21 C          62.4440   90.6183   10.9655 C.ar    1  UNL1        0.0920
     22 C          62.9600   91.5415    9.9019 C.ar    1  UNL1        0.0204
     23 C          64.2505   92.2776   10.1091 C.ar    1  UNL1        0.0312
     24 C          65.0250   92.0904   11.3799 C.ar    1  UNL1        0.1454
     25 F          66.3155   92.8264   11.5872 F       1  UNL1       -0.2040
     26 C          64.5090   91.1671   12.4436 C.ar    1  UNL1        0.0951
     27 C          63.2185   90.4311   12.2363 C.ar    1  UNL1        0.1598
     28 F          62.7026   89.5078   13.3000 F       1  UNL1       -0.2026
     29 N          61.1535   89.8822   10.7582 N.pl3   1  UNL1       -0.2166
     30 H          60.3279   90.3817   10.5631 H       1  UNL1        0.1734
     31 S          61.1211   88.3853   10.8483 S.O2    1  UNL1        0.0540
     32 O          60.0623   88.4719   11.9072 O.2     1  UNL1       -0.1545
     33 O          62.1799   88.2987    9.7893 O.2     1  UNL1       -0.1545
     34 C          61.0888   86.8884   10.9382 C.3     1  UNL1        0.1724
     35 C          62.3063   84.6460   11.4277 C.3     1  UNL1        0.0019
     36 C          62.3573   86.1237   11.1750 C.3     1  UNL1        0.0273
@<TRIPOS>BOND
     1    35    36    1
     2    36    34    1
     3    34    31    1
     4    31    32    2
     5    31    33    2
     6    31    29    1
     7    29    21    1
     8    21    22   ar
     9    22    23   ar
    10    23    24   ar
    11    24    25    1
    12    24    26   ar
    13    26     1    1
    14     1     2    2
    15     1     3    1
    16     3     4   ar
    17     4     5   ar
    18     5     6   ar
    19     6     7   ar
    20     7     8   ar
    21     8     9   ar
    22     9    13    1
    23    13    14   ar
    24    14    15   ar
    25    15    16   ar
    26    16    19    1
    27    19    20    1
    28    16    17   ar
    29    17    18   ar
    30     9    10   ar
    31    10    11   ar
    32    26    27   ar
    33    27    28    1
    34    27    21   ar
    35    11     3   ar
    36    11     6    1
    37    18    13   ar
    38    29    30    1
    39     7    12    1
@<TRIPOS>MOLECULE
*****
 36 39 0 0 0
SMALL
GASTEIGER

@<TRIPOS>ATOM
      1 C          63.9934   84.0664   13.2193 C.2     1  UNL1        0.2015
      2 O          65.0960   83.0497   13.2368 O.2     1  UNL1       -0.2864
      3 C          63.4952   84.6548   14.5060 C.ar    1  UNL1        0.0611
      4 C          62.8420   83.9005   15.6260 C.ar    1  UNL1        0.1037
      5 N          62.5059   84.8805   16.7107 N.ar    1  UNL1       -0.2269
      6 C          62.9513   86.2404   16.2612 C.ar    1  UNL1        0.1407
      7 N          62.8792   87.5877   16.9165 N.ar    1  UNL1       -0.3374
      8 C          63.4184   88.7956   16.2093 C.ar    1  UNL1        0.0735
      9 C          64.0299   88.6561   14.8467 C.ar    1  UNL1        0.0201
     10 C          64.1020   87.3088   14.1913 C.ar    1  UNL1        0.0047
     11 C          63.5628   86.1010   14.8986 C.ar    1  UNL1        0.0386
     12 H          62.4779   87.6792   17.8109 H       1  UNL1        0.1674
     13 C          64.5692   89.8641   14.1394 C.ar    1  UNL1        0.0398
     14 C          63.8920   90.3729   12.9015 C.ar    1  UNL1        0.1026
     15 N          64.4313   91.5809   12.1943 N.ar    1  UNL1       -0.2196
     16 C          65.6477   92.2799   12.7250 C.ar    1  UNL1        0.1901
     17 N          66.3249   91.7710   13.9630 N.ar    1  UNL1       -0.2196
     18 C          65.7856   90.5631   14.6702 C.ar    1  UNL1        0.1026
     19 S          66.1870   93.4878   12.0178 S.3     1  UNL1       -0.0748
     20 C          66.5349   93.4107   10.5608 C.3     1  UNL1        0.0772
     21 C          61.5690   85.8022   10.6002 C.ar    1  UNL1        0.0920
     22 C          62.1797   85.3512    9.3065 C.ar    1  UNL1        0.0204
     23 C          63.3950   84.4720    9.3171 C.ar    1  UNL1        0.0312
     24 C          63.9996   84.0437   10.6213 C.ar    1  UNL1        0.1454
     25 F          65.2148   83.1645   10.6319 F       1  UNL1       -0.2040
     26 C          63.3888   84.4947   11.9150 C.ar    1  UNL1        0.0951
     27 C          62.1736   85.3739   11.9044 C.ar    1  UNL1        0.1598
     28 F          61.5629   85.8248   13.1982 F       1  UNL1       -0.2026
     29 N          60.3537   86.6814   10.5896 N.pl3   1  UNL1       -0.2166
     30 H          59.4684   86.2998   10.7891 H       1  UNL1        0.1734
     31 S          60.4874   88.1419   10.2751 S.O2    1  UNL1        0.0540
     32 O          61.4319   88.3040   11.4291 O.2     1  UNL1       -0.1545
     33 O          59.5430   87.9799    9.1211 O.2     1  UNL1       -0.1545
     34 C          60.6211   89.6024    9.9605 C.3     1  UNL1        0.1724
     35 C          58.9930   90.7999   11.5932 C.3     1  UNL1        0.0019
     36 C          60.3717   90.6256   11.0287 C.3     1  UNL1        0.0273
@<TRIPOS>BOND
     1    35    36    1
     2    36    34    1
     3    34    31    1
     4    31    32    2
     5    31    33    2
     6    31    29    1
     7    29    21    1
     8    21    22   ar
     9    22    23   ar
    10    23    24   ar
    11    24    25    1
    12    24    26   ar
    13    26     1    1
    14     1     2    2
    15     1     3    1
    16     3     4   ar
    17     4     5   ar
    18     5     6   ar
    19     6     7   ar
    20     7     8   ar
    21     8     9   ar
    22     9    13    1
    23    13    14   ar
    24    14    15   ar
    25    15    16   ar
    26    16    19    1
    27    19    20    1
    28    16    17   ar
    29    17    18   ar
    30     9    10   ar
    31    10    11   ar
    32    26    27   ar
    33    27    28    1
    34    27    21   ar
    35    11     3   ar
    36    11     6    1
    37    18    13   ar
    38    29    30    1
    39     7    12    1
