@<TRIPOS>MOLECULE
*****
 33 35 0 0 0
SMALL
GASTEIGER

@<TRIPOS>ATOM
      1 C          64.1957   88.3952   13.9523 C.ar    1  UNL1        0.0758
      2 C          65.2180   89.0150   14.8581 C.ar    1  UNL1        0.0181
      3 C          65.6850   90.4192   14.6124 C.ar    1  UNL1        0.0164
      4 C          65.1295   91.2035   13.4608 C.ar    1  UNL1        0.0594
      5 C          64.1071   90.5838   12.5549 C.ar    1  UNL1        0.0459
      6 C          63.6402   89.1796   12.8006 C.ar    1  UNL1        0.1546
      7 F          62.6178   88.5598   11.8947 F       1  UNL1       -0.2028
      8 C          61.4816   80.0159   14.1937 C.3     1  UNL1        0.1122
      9 N          61.9007   81.3936   14.6133 N.am    1  UNL1       -0.2860
     10 C          62.2885   82.4075   13.5781 C.2     1  UNL1        0.3173
     11 O          62.2571   82.0435   12.1233 O.2     1  UNL1       -0.2513
     12 N          62.7076   83.7852   13.9977 N.am    1  UNL1       -0.2072
     13 C          63.0749   84.7212   12.8844 C.3     1  UNL1        0.1342
     14 C          63.5293   86.1478   12.9736 C.3     1  UNL1        0.1141
     15 N          63.7287   86.9911   14.1980 N.pl3   1  UNL1       -0.3025
     16 C          63.5230   86.6159   15.6357 C.3     1  UNL1        0.1096
     17 C          63.0670   85.3047   16.2039 C.3     1  UNL1        0.1092
     18 N          62.7041   84.0450   15.4751 N.3     1  UNL1       -0.2237
     19 H          61.9213   81.6325   15.5682 H       1  UNL1        0.1511
     20 H          61.7469   83.8476   15.7670 H       1  UNL1        0.1454
     21 N          65.5964   92.6076   13.2150 N.am    1  UNL1       -0.2212
     22 C          65.4846   93.3605   11.9225 C.3     1  UNL1        0.1468
     23 C          66.0762   94.7236   12.1273 C.3     1  UNL1        0.2101
     24 O          66.5537   94.8132   13.5464 O.3     1  UNL1       -0.4345
     25 C          66.2572   93.5054   14.2187 C.2     1  UNL1        0.4088
     26 O          66.5670   93.1567   15.6443 O.2     1  UNL1       -0.2258
     27 C          66.1733   95.8069   11.0943 C.3     1  UNL1        0.1358
     28 N          67.4226   95.9545   10.2774 N.am    1  UNL1       -0.2954
     29 H          67.9961   96.7462   10.3937 H       1  UNL1        0.1502
     30 C          67.7981   94.8959    9.2832 C.2     1  UNL1        0.2296
     31 S          67.1937   94.9080    7.9104 S.2     1  UNL1        0.0058
     32 O          68.7780   93.8252    9.6618 O.3     1  UNL1       -0.4543
     33 C          68.4826   92.3902    9.3399 C.3     1  UNL1        0.2545
@<TRIPOS>BOND
     1     8     9    1
     2     9    10   am
     3    10    11    2
     4    10    12   am
     5    12    13    1
     6    13    14    1
     7    14    15    1
     8    15     1    1
     9     1     2   ar
    10     2     3   ar
    11     3     4   ar
    12     4    21    1
    13    21    22    1
    14    22    23    1
    15    23    27    1
    16    27    28    1
    17    28    30    1
    18    30    31    2
    19    30    32    1
    20    32    33    1
    21    23    24    1
    22    24    25    1
    23    25    26    2
    24     4     5   ar
    25     5     6   ar
    26     6     7    1
    27    15    16    1
    28    16    17    1
    29    17    18    1
    30    18    12    1
    31     6     1   ar
    32    25    21   am
    33     9    19    1
    34    28    29    1
    35    18    20    1
@<TRIPOS>MOLECULE
*****
 33 35 0 0 0
SMALL
GASTEIGER

@<TRIPOS>ATOM
      1 C          63.7333   85.8327   13.6590 C.ar    1  UNL1        0.0758
      2 C          64.4468   86.1600   14.9373 C.ar    1  UNL1        0.0181
      3 C          64.7466   87.5882   15.2845 C.ar    1  UNL1        0.0164
      4 C          64.3329   88.6891   14.3534 C.ar    1  UNL1        0.0594
      5 C          63.6194   88.3619   13.0752 C.ar    1  UNL1        0.0459
      6 C          63.3196   86.9337   12.7280 C.ar    1  UNL1        0.1546
      7 F          62.6061   86.6065   11.4497 F       1  UNL1       -0.2028
      8 C          62.4306   77.6996   10.5298 C.3     1  UNL1        0.1122
      9 N          62.4625   78.8909   11.4407 N.am    1  UNL1       -0.2860
     10 C          63.0194   80.1947   10.9511 C.2     1  UNL1        0.3173
     11 O          63.5443   80.3073    9.5505 O.2     1  UNL1       -0.2513
     12 N          63.0513   81.3860   11.8620 N.am    1  UNL1       -0.2072
     13 C          63.6279   82.6398   11.2740 C.3     1  UNL1        0.1342
     14 C          63.7980   83.9831   11.9192 C.3     1  UNL1        0.1141
     15 N          63.4335   84.4047   13.3119 N.pl3   1  UNL1       -0.3025
     16 C          62.8089   83.5869   14.4032 C.3     1  UNL1        0.1096
     17 C          62.3946   82.1456   14.3714 C.3     1  UNL1        0.1092
     18 N          62.5024   81.1662   13.2406 N.3     1  UNL1       -0.2237
     19 H          62.1180   78.8170   12.3600 H       1  UNL1        0.1511
     20 H          61.5459   80.8470   13.0869 H       1  UNL1        0.1454
     21 N          64.6326   90.1172   14.7006 N.am    1  UNL1       -0.2212
     22 C          65.6023   91.0129   13.9883 C.3     1  UNL1        0.1468
     23 C          65.5843   92.3497   14.6685 C.3     1  UNL1        0.2101
     24 O          64.6035   92.2802   15.8012 O.3     1  UNL1       -0.4345
     25 C          64.0153   90.9004   15.8211 C.2     1  UNL1        0.4088
     26 O          62.9898   90.3930   16.7911 O.2     1  UNL1       -0.2258
     27 C          66.4034   93.5459   14.2836 C.3     1  UNL1        0.1358
     28 N          67.0188   93.6257   12.9181 N.am    1  UNL1       -0.2954
     29 H          67.9492   93.3350   12.7798 H       1  UNL1        0.1502
     30 C          66.2168   94.1482   11.7632 C.2     1  UNL1        0.2296
     31 S          65.5179   93.1926   10.8421 S.2     1  UNL1        0.0058
     32 O          66.1137   95.6262   11.5294 O.3     1  UNL1       -0.4543
     33 C          66.3177   96.1837   10.1519 C.3     1  UNL1        0.2545
@<TRIPOS>BOND
     1     8     9    1
     2     9    10   am
     3    10    11    2
     4    10    12   am
     5    12    13    1
     6    13    14    1
     7    14    15    1
     8    15     1    1
     9     1     2   ar
    10     2     3   ar
    11     3     4   ar
    12     4    21    1
    13    21    22    1
    14    22    23    1
    15    23    27    1
    16    27    28    1
    17    28    30    1
    18    30    31    2
    19    30    32    1
    20    32    33    1
    21    23    24    1
    22    24    25    1
    23    25    26    2
    24     4     5   ar
    25     5     6   ar
    26     6     7    1
    27    15    16    1
    28    16    17    1
    29    17    18    1
    30    18    12    1
    31     6     1   ar
    32    25    21   am
    33     9    19    1
    34    28    29    1
    35    18    20    1
@<TRIPOS>MOLECULE
*****
 33 35 0 0 0
SMALL
GASTEIGER

@<TRIPOS>ATOM
      1 C          56.6911   94.8524   -1.6558 C.ar    1  UNL1        0.0758
      2 C          57.6289   95.9542   -1.2602 C.ar    1  UNL1        0.0181
      3 C          58.8657   95.6396   -0.4719 C.ar    1  UNL1        0.0164
      4 C          59.1647   94.2231   -0.0792 C.ar    1  UNL1        0.0594
      5 C          58.2269   93.1212   -0.4748 C.ar    1  UNL1        0.0459
      6 C          56.9901   93.4359   -1.2631 C.ar    1  UNL1        0.1546
      7 F          56.0523   92.3340   -1.6587 F       1  UNL1       -0.2028
      8 C          48.8843   96.8560   -5.2162 C.3     1  UNL1        0.1122
      9 N          50.3277   96.4793   -5.0596 N.am    1  UNL1       -0.2860
     10 C          50.9222   96.3403   -3.6895 C.2     1  UNL1        0.3173
     11 O          50.0732   96.5779   -2.4760 O.2     1  UNL1       -0.2513
     12 N          52.3657   95.9637   -3.5330 N.am    1  UNL1       -0.2072
     13 C          52.8597   95.8515   -2.1210 C.3     1  UNL1        0.1342
     14 C          54.2342   95.4970   -1.6365 C.3     1  UNL1        0.1141
     15 N          55.4544   95.1670   -2.4441 N.pl3   1  UNL1       -0.3025
     16 C          55.6014   95.1101   -3.9358 C.3     1  UNL1        0.1096
     17 C          54.5644   95.3691   -4.9882 C.3     1  UNL1        0.1092
     18 N          53.1245   95.7490   -4.8090 N.3     1  UNL1       -0.2237
     19 H          50.8850   96.3234   -5.8561 H       1  UNL1        0.1511
     20 H          52.6050   95.0182   -5.2953 H       1  UNL1        0.1454
     21 N          60.4014   93.9084    0.7091 N.am    1  UNL1       -0.2212
     22 C          61.8101   94.2265    0.3036 C.3     1  UNL1        0.1468
     23 C          62.7260   93.7351    1.3852 C.3     1  UNL1        0.2101
     24 O          61.8833   93.1134    2.4591 O.3     1  UNL1       -0.4345
     25 C          60.4466   93.2205    2.0413 C.2     1  UNL1        0.4088
     26 O          59.2630   92.7265    2.8191 O.2     1  UNL1       -0.2258
     27 C          64.2219   93.8459    1.3917 C.3     1  UNL1        0.1358
     28 N          64.9700   93.9754    0.0981 N.am    1  UNL1       -0.2954
     29 H          65.4917   93.2152   -0.2470 H       1  UNL1        0.1502
     30 C          64.9233   95.2632   -0.6697 C.2     1  UNL1        0.2296
     31 S          65.7425   96.4358   -0.2180 S.2     1  UNL1        0.0058
     32 O          64.0575   95.3784   -1.8891 O.3     1  UNL1       -0.4543
     33 C          64.6257   95.0755   -3.2439 C.3     1  UNL1        0.2545
@<TRIPOS>BOND
     1     8     9    1
     2     9    10   am
     3    10    11    2
     4    10    12   am
     5    12    13    1
     6    13    14    1
     7    14    15    1
     8    15     1    1
     9     1     2   ar
    10     2     3   ar
    11     3     4   ar
    12     4    21    1
    13    21    22    1
    14    22    23    1
    15    23    27    1
    16    27    28    1
    17    28    30    1
    18    30    31    2
    19    30    32    1
    20    32    33    1
    21    23    24    1
    22    24    25    1
    23    25    26    2
    24     4     5   ar
    25     5     6   ar
    26     6     7    1
    27    15    16    1
    28    16    17    1
    29    17    18    1
    30    18    12    1
    31     6     1   ar
    32    25    21   am
    33     9    19    1
    34    28    29    1
    35    18    20    1
@<TRIPOS>MOLECULE
*****
 33 35 0 0 0
SMALL
GASTEIGER

@<TRIPOS>ATOM
      1 C          63.7823   85.5578   13.0902 C.ar    1  UNL1        0.0758
      2 C          64.4379   85.6869   14.4332 C.ar    1  UNL1        0.0181
      3 C          64.5847   87.0374   15.0695 C.ar    1  UNL1        0.0164
      4 C          64.0758   88.2588   14.3628 C.ar    1  UNL1        0.0594
      5 C          63.4202   88.1297   13.0199 C.ar    1  UNL1        0.0459
      6 C          63.2735   86.7792   12.3835 C.ar    1  UNL1        0.1546
      7 F          62.6179   86.6502   11.0405 F       1  UNL1       -0.2028
      8 C          62.5459   77.2466   10.4384 C.3     1  UNL1        0.1122
      9 N          62.8845   78.7079   10.4450 N.am    1  UNL1       -0.2860
     10 C          62.7377   79.5061   11.7065 C.2     1  UNL1        0.3173
     11 O          62.2523   78.8430   12.9613 O.2     1  UNL1       -0.2513
     12 N          63.0764   80.9673   11.7131 N.am    1  UNL1       -0.2072
     13 C          62.8944   81.6717   13.0249 C.3     1  UNL1        0.1342
     14 C          63.1433   83.1136   13.3546 C.3     1  UNL1        0.1141
     15 N          63.6356   84.2075   12.4539 N.pl3   1  UNL1       -0.3025
     16 C          64.0006   84.1295   11.0011 C.3     1  UNL1        0.1096
     17 C          63.9635   82.9383   10.0902 C.3     1  UNL1        0.1092
     18 N          63.5522   81.5311   10.4069 N.3     1  UNL1       -0.2237
     19 H          63.2031   79.1430    9.6214 H       1  UNL1        0.1511
     20 H          64.3669   80.9665   10.1666 H       1  UNL1        0.1454
     21 N          64.2225   89.6091   14.9991 N.am    1  UNL1       -0.2212
     22 C          65.3652   90.5596   14.7969 C.3     1  UNL1        0.1468
     23 C          65.1012   91.7841   15.6222 C.3     1  UNL1        0.2101
     24 O          63.7954   91.5904   16.3343 O.3     1  UNL1       -0.4345
     25 C          63.2522   90.2461   15.9493 C.2     1  UNL1        0.4088
     26 O          61.9650   89.6446   16.4300 O.2     1  UNL1       -0.2258
     27 C          65.9874   92.9904   15.7183 C.3     1  UNL1        0.1358
     28 N          66.3514   93.7543   14.4799 N.am    1  UNL1       -0.2954
     29 H          66.1873   94.7240   14.4336 H       1  UNL1        0.1502
     30 C          66.9655   93.0410   13.3119 C.2     1  UNL1        0.2296
     31 S          66.2980   93.0875   11.9694 S.2     1  UNL1        0.0058
     32 O          68.2470   92.2813   13.4864 O.3     1  UNL1       -0.4543
     33 C          69.0626   92.4623   14.7322 C.3     1  UNL1        0.2545
@<TRIPOS>BOND
     1     8     9    1
     2     9    10   am
     3    10    11    2
     4    10    12   am
     5    12    13    1
     6    13    14    1
     7    14    15    1
     8    15     1    1
     9     1     2   ar
    10     2     3   ar
    11     3     4   ar
    12     4    21    1
    13    21    22    1
    14    22    23    1
    15    23    27    1
    16    27    28    1
    17    28    30    1
    18    30    31    2
    19    30    32    1
    20    32    33    1
    21    23    24    1
    22    24    25    1
    23    25    26    2
    24     4     5   ar
    25     5     6   ar
    26     6     7    1
    27    15    16    1
    28    16    17    1
    29    17    18    1
    30    18    12    1
    31     6     1   ar
    32    25    21   am
    33     9    19    1
    34    28    29    1
    35    18    20    1
@<TRIPOS>MOLECULE
*****
 33 35 0 0 0
SMALL
GASTEIGER

@<TRIPOS>ATOM
      1 C          63.4070   84.9193   13.0405 C.ar    1  UNL1        0.0758
      2 C          64.1579   85.3676   14.2592 C.ar    1  UNL1        0.0181
      3 C          64.3488   86.8313   14.5262 C.ar    1  UNL1        0.0164
      4 C          63.7887   87.8467   13.5746 C.ar    1  UNL1        0.0594
      5 C          63.0378   87.3983   12.3559 C.ar    1  UNL1        0.0459
      6 C          62.8469   85.9346   12.0889 C.ar    1  UNL1        0.1546
      7 F          62.0960   85.4862   10.8702 F       1  UNL1       -0.2028
      8 C          62.6138   76.5713   10.3350 C.3     1  UNL1        0.1122
      9 N          62.6145   77.7990   11.1968 N.am    1  UNL1       -0.2860
     10 C          62.9946   79.1265   10.6108 C.2     1  UNL1        0.3173
     11 O          63.3740   79.2262    9.1631 O.2     1  UNL1       -0.2513
     12 N          62.9953   80.3542   11.4727 N.am    1  UNL1       -0.2072
     13 C          63.3907   81.6293   10.7887 C.3     1  UNL1        0.1342
     14 C          63.4889   83.0095   11.3676 C.3     1  UNL1        0.1141
     15 N          63.2161   83.4557   12.7735 N.pl3   1  UNL1       -0.3025
     16 C          62.7776   82.6317   13.9477 C.3     1  UNL1        0.1096
     17 C          62.5036   81.1580   14.0060 C.3     1  UNL1        0.1092
     18 N          62.6005   80.1445   12.9046 N.3     1  UNL1       -0.2237
     19 H          62.3655   77.7335   12.1470 H       1  UNL1        0.1511
     20 H          61.6693   79.7312   12.8550 H       1  UNL1        0.1454
     21 N          63.9796   89.3102   13.8416 N.am    1  UNL1       -0.2212
     22 C          64.8378   89.9055   14.9182 C.3     1  UNL1        0.1468
     23 C          64.7344   91.3988   14.8209 C.3     1  UNL1        0.2101
     24 O          63.8124   91.7264   13.6841 O.3     1  UNL1       -0.4345
     25 C          63.3458   90.4356   13.0788 C.2     1  UNL1        0.4088
     26 O          62.4099   90.2949   11.9151 O.2     1  UNL1       -0.2258
     27 C          65.4308   92.3903   15.7051 C.3     1  UNL1        0.1358
     28 N          66.4374   93.3375   15.1225 N.am    1  UNL1       -0.2954
     29 H          66.2287   94.2973   15.0550 H       1  UNL1        0.1502
     30 C          67.7620   92.8225   14.6427 C.2     1  UNL1        0.2296
     31 S          68.9947   93.0379   15.4699 S.2     1  UNL1        0.0058
     32 O          67.8540   92.0920   13.3358 O.3     1  UNL1       -0.4543
     33 C          67.0463   92.5546   12.1596 C.3     1  UNL1        0.2545
@<TRIPOS>BOND
     1     8     9    1
     2     9    10   am
     3    10    11    2
     4    10    12   am
     5    12    13    1
     6    13    14    1
     7    14    15    1
     8    15     1    1
     9     1     2   ar
    10     2     3   ar
    11     3     4   ar
    12     4    21    1
    13    21    22    1
    14    22    23    1
    15    23    27    1
    16    27    28    1
    17    28    30    1
    18    30    31    2
    19    30    32    1
    20    32    33    1
    21    23    24    1
    22    24    25    1
    23    25    26    2
    24     4     5   ar
    25     5     6   ar
    26     6     7    1
    27    15    16    1
    28    16    17    1
    29    17    18    1
    30    18    12    1
    31     6     1   ar
    32    25    21   am
    33     9    19    1
    34    28    29    1
    35    18    20    1
@<TRIPOS>MOLECULE
*****
 33 35 0 0 0
SMALL
GASTEIGER

@<TRIPOS>ATOM
      1 C          63.6093   85.6168   13.6111 C.ar    1  UNL1        0.0758
      2 C          63.2713   86.7105   12.6417 C.ar    1  UNL1        0.0181
      3 C          63.5364   88.1419   13.0036 C.ar    1  UNL1        0.0164
      4 C          64.1396   88.4796   14.3349 C.ar    1  UNL1        0.0594
      5 C          64.4776   87.3859   15.3042 C.ar    1  UNL1        0.0459
      6 C          64.2125   85.9545   14.9423 C.ar    1  UNL1        0.1546
      7 F          64.5505   84.8608   15.9117 F       1  UNL1       -0.2028
      8 C          62.5040   77.4869   10.3985 C.3     1  UNL1        0.1122
      9 N          62.5069   78.6693   11.3215 N.am    1  UNL1       -0.2860
     10 C          63.0324   79.9911   10.8455 C.2     1  UNL1        0.3173
     11 O          63.5551   80.1305    9.4465 O.2     1  UNL1       -0.2513
     12 N          63.0353   81.1735   11.7685 N.am    1  UNL1       -0.2072
     13 C          63.5818   82.4467   11.1936 C.3     1  UNL1        0.1342
     14 C          63.7192   83.7870   11.8526 C.3     1  UNL1        0.1141
     15 N          63.3441   84.1855   13.2492 N.pl3   1  UNL1       -0.3025
     16 C          62.7389   83.3419   14.3318 C.3     1  UNL1        0.1096
     17 C          62.3594   81.8914   14.2851 C.3     1  UNL1        0.1092
     18 N          62.4912   80.9264   13.1445 N.3     1  UNL1       -0.2237
     19 H          62.1638   78.5778   12.2398 H       1  UNL1        0.1511
     20 H          61.5427   80.5860   12.9869 H       1  UNL1        0.1454
     21 N          64.4048   89.9109   14.6967 N.am    1  UNL1       -0.2212
     22 C          65.3741   90.8283   14.0122 C.3     1  UNL1        0.1468
     23 C          65.3156   92.1605   14.6991 C.3     1  UNL1        0.2101
     24 O          64.3101   92.0664   15.8081 O.3     1  UNL1       -0.4345
     25 C          63.7471   90.6760   15.8067 C.2     1  UNL1        0.4088
     26 O          62.7088   90.1442   16.7496 O.2     1  UNL1       -0.2258
     27 C          66.1211   93.3739   14.3400 C.3     1  UNL1        0.1358
     28 N          67.1954   93.2793   13.2974 N.am    1  UNL1       -0.2954
     29 H          67.1184   93.7961   12.4630 H       1  UNL1        0.1502
     30 C          68.3870   92.3975   13.5261 C.2     1  UNL1        0.2296
     31 S          68.9722   92.2691   14.9013 S.2     1  UNL1        0.0058
     32 O          68.9935   91.6439   12.3797 O.3     1  UNL1       -0.4543
     33 C          68.4152   91.7807   11.0025 C.3     1  UNL1        0.2545
@<TRIPOS>BOND
     1     8     9    1
     2     9    10   am
     3    10    11    2
     4    10    12   am
     5    12    13    1
     6    13    14    1
     7    14    15    1
     8    15     1    1
     9     1     2   ar
    10     2     3   ar
    11     3     4   ar
    12     4    21    1
    13    21    22    1
    14    22    23    1
    15    23    27    1
    16    27    28    1
    17    28    30    1
    18    30    31    2
    19    30    32    1
    20    32    33    1
    21    23    24    1
    22    24    25    1
    23    25    26    2
    24     4     5   ar
    25     5     6   ar
    26     6     7    1
    27    15    16    1
    28    16    17    1
    29    17    18    1
    30    18    12    1
    31     6     1   ar
    32    25    21   am
    33     9    19    1
    34    28    29    1
    35    18    20    1
