@<TRIPOS>MOLECULE
*****
 35 38 0 0 0
SMALL
GASTEIGER

@<TRIPOS>ATOM
      1 C          64.1539   89.1518   15.2394 C.ar    1  UNL1        0.0847
      2 C          63.2435   89.2514   16.4275 C.ar    1  UNL1        0.0192
      3 C          62.7151   88.0053   17.0739 C.ar    1  UNL1        0.0017
      4 C          63.0969   86.6596   16.5324 C.ar    1  UNL1        0.0046
      5 C          64.0073   86.5600   15.3444 C.ar    1  UNL1        0.0549
      6 C          64.5357   87.8061   14.6980 C.ar    1  UNL1        0.0237
      7 C          65.9858   92.3990   14.1598 C.ar    1  UNL1        0.1608
      8 N          65.0055   92.2321   13.0368 N.ar    1  UNL1       -0.2073
      9 C          64.1999   90.9954   13.3045 C.ar    1  UNL1        0.2012
     10 N          64.6824   90.3979   14.5930 N.ar    1  UNL1       -0.2083
     11 N          65.7861   91.2653   15.1216 N.ar    1  UNL1       -0.1488
     12 C          63.1043   90.4517   12.4362 C.ar    1  UNL1        0.1992
     13 N          63.2220   90.5303   10.9429 N.ar    1  UNL1       -0.2192
     14 C          62.1264   89.9866   10.0746 C.ar    1  UNL1        0.1390
     15 C          60.9130   89.3643   10.6996 C.ar    1  UNL1        0.1769
     16 C          60.7953   89.2858   12.1929 C.ar    1  UNL1        0.1390
     17 N          61.8910   89.8295   13.0612 N.ar    1  UNL1       -0.2192
     18 O          59.8174   88.8206    9.8312 O.3     1  UNL1       -0.4683
     19 C          59.8982   88.9690    8.3408 C.3     1  UNL1        0.2526
     20 C          67.9388   93.5169   15.4584 C.3     1  UNL1        0.0085
     21 C          66.9895   93.5052   14.2969 C.3     1  UNL1        0.0676
     22 C          64.3892   85.2143   14.8028 C.2     1  UNL1        0.2459
     23 O          65.7392   85.0115   14.1814 O.2     1  UNL1       -0.2701
     24 N          63.4210   84.0714   14.8827 N.am    1  UNL1       -0.3009
     25 H          62.5349   84.2045   15.2906 H       1  UNL1        0.1497
     26 C          63.8029   82.7257   14.3411 C.3     1  UNL1        0.0897
     27 C          62.7795   81.8809   13.6417 C.3     1  UNL1        0.0216
     28 C          62.8286   81.7244   12.1507 C.3     1  UNL1        0.0064
     29 C          63.7700   82.5640   11.3390 C.3     1  UNL1        0.0264
     30 C          63.2642   83.7849   10.6293 C.ar    1  UNL1       -0.0222
     31 C          62.3974   84.7698   11.3564 C.ar    1  UNL1       -0.0043
     32 C          61.8917   85.9907   10.6467 C.ar    1  UNL1       -0.0003
     33 C          62.2527   86.2266    9.2100 C.ar    1  UNL1       -0.0000
     34 C          63.1195   85.2417    8.4830 C.ar    1  UNL1       -0.0003
     35 C          63.6253   84.0208    9.1927 C.ar    1  UNL1       -0.0043
@<TRIPOS>BOND
     1    20    21    1
     2    21     7    1
     3     7     8   ar
     4     8     9   ar
     5     9    12    1
     6    12    13   ar
     7    13    14   ar
     8    14    15   ar
     9    15    18    1
    10    18    19    1
    11    15    16   ar
    12    16    17   ar
    13     9    10   ar
    14    10     1    1
    15     1     2   ar
    16     2     3   ar
    17     3     4   ar
    18     4     5   ar
    19     5    22    1
    20    22    23    2
    21    22    24   am
    22    24    26    1
    23    26    27    1
    24    27    28    1
    25    28    29    1
    26    29    30    1
    27    30    31   ar
    28    31    32   ar
    29    32    33   ar
    30    33    34   ar
    31    34    35   ar
    32     5     6   ar
    33    10    11   ar
    34    11     7   ar
    35    17    12   ar
    36     6     1   ar
    37    35    30   ar
    38    24    25    1
@<TRIPOS>MOLECULE
*****
 35 38 0 0 0
SMALL
GASTEIGER

@<TRIPOS>ATOM
      1 C          62.3066   90.2128   11.1993 C.ar    1  UNL1        0.0847
      2 C          60.9639   90.5726   11.7631 C.ar    1  UNL1        0.0192
      3 C          59.7745   89.7034   11.4805 C.ar    1  UNL1        0.0017
      4 C          59.9277   88.4745   10.6341 C.ar    1  UNL1        0.0046
      5 C          61.2704   88.1148   10.0704 C.ar    1  UNL1        0.0549
      6 C          62.4597   88.9840   10.3530 C.ar    1  UNL1        0.0237
      7 C          65.2901   92.6955   11.2203 C.ar    1  UNL1        0.1608
      8 N          65.3624   92.1437   12.6132 N.ar    1  UNL1       -0.2073
      9 C          64.2536   91.1465   12.7749 C.ar    1  UNL1        0.2012
     10 N          63.4959   91.0820   11.4819 N.ar    1  UNL1       -0.2083
     11 N          64.1365   92.0394   10.5211 N.ar    1  UNL1       -0.1488
     12 C          63.9548   90.3531   14.0124 C.ar    1  UNL1        0.1992
     13 N          64.0739   88.8580   13.9916 N.ar    1  UNL1       -0.2192
     14 C          63.7752   88.0647   15.2291 C.ar    1  UNL1        0.1390
     15 C          63.3574   88.7664   16.4873 C.ar    1  UNL1        0.1769
     16 C          63.2383   90.2615   16.5080 C.ar    1  UNL1        0.1390
     17 N          63.5371   91.0548   15.2705 N.ar    1  UNL1       -0.2192
     18 O          63.0586   87.9730   17.7248 O.3     1  UNL1       -0.4683
     19 C          62.6095   86.5464   17.6108 C.3     1  UNL1        0.2526
     20 C          67.3694   93.2927    9.7816 C.3     1  UNL1        0.0085
     21 C          66.2098   93.7231   10.6301 C.3     1  UNL1        0.0676
     22 C          61.4237   86.8859    9.2240 C.2     1  UNL1        0.2459
     23 O          60.2087   86.1841    8.6937 O.2     1  UNL1       -0.2701
     24 N          62.7920   86.3588    8.9079 N.am    1  UNL1       -0.3009
     25 H          63.5894   86.8194    9.2560 H       1  UNL1        0.1497
     26 C          62.9453   85.1299    8.0616 C.3     1  UNL1        0.0897
     27 C          63.1739   83.7966    8.7098 C.3     1  UNL1        0.0216
     28 C          63.9060   83.7137   10.0163 C.3     1  UNL1        0.0064
     29 C          64.0951   82.3854   10.6871 C.3     1  UNL1        0.0264
     30 C          63.3068   82.0477   11.9178 C.ar    1  UNL1       -0.0222
     31 C          62.9564   83.1236   12.9026 C.ar    1  UNL1       -0.0043
     32 C          62.1681   82.7859   14.1333 C.ar    1  UNL1       -0.0003
     33 C          61.7301   81.3725   14.3791 C.ar    1  UNL1       -0.0000
     34 C          62.0805   80.2967   13.3943 C.ar    1  UNL1       -0.0003
     35 C          62.8688   80.6343   12.1636 C.ar    1  UNL1       -0.0043
@<TRIPOS>BOND
     1    20    21    1
     2    21     7    1
     3     7     8   ar
     4     8     9   ar
     5     9    12    1
     6    12    13   ar
     7    13    14   ar
     8    14    15   ar
     9    15    18    1
    10    18    19    1
    11    15    16   ar
    12    16    17   ar
    13     9    10   ar
    14    10     1    1
    15     1     2   ar
    16     2     3   ar
    17     3     4   ar
    18     4     5   ar
    19     5    22    1
    20    22    23    2
    21    22    24   am
    22    24    26    1
    23    26    27    1
    24    27    28    1
    25    28    29    1
    26    29    30    1
    27    30    31   ar
    28    31    32   ar
    29    32    33   ar
    30    33    34   ar
    31    34    35   ar
    32     5     6   ar
    33    10    11   ar
    34    11     7   ar
    35    17    12   ar
    36     6     1   ar
    37    35    30   ar
    38    24    25    1
@<TRIPOS>MOLECULE
*****
 35 38 0 0 0
SMALL
GASTEIGER

@<TRIPOS>ATOM
      1 C          63.1882   85.8754   15.5498 C.ar    1  UNL1        0.0847
      2 C          62.7425   85.6329   16.9615 C.ar    1  UNL1        0.0192
      3 C          62.6690   86.7749   17.9313 C.ar    1  UNL1        0.0017
      4 C          63.0411   88.1593   17.4896 C.ar    1  UNL1        0.0046
      5 C          63.4867   88.4016   16.0779 C.ar    1  UNL1        0.0549
      6 C          63.5602   87.2597   15.1081 C.ar    1  UNL1        0.0237
      7 C          63.5924   82.5197   13.6416 C.ar    1  UNL1        0.1608
      8 N          63.1573   83.4325   12.5338 N.ar    1  UNL1       -0.2073
      9 C          62.9529   84.8007   13.1137 C.ar    1  UNL1        0.2012
     10 N          63.2617   84.7334   14.5800 N.ar    1  UNL1       -0.2083
     11 N          63.6569   83.3237   14.9063 N.ar    1  UNL1       -0.1488
     12 C          62.5164   86.0218   12.3597 C.ar    1  UNL1        0.1992
     13 N          63.2772   87.3061   12.5070 N.ar    1  UNL1       -0.2192
     14 C          62.8407   88.5270   11.7529 C.ar    1  UNL1        0.1390
     15 C          61.6434   88.4637   10.8516 C.ar    1  UNL1        0.1769
     16 C          60.8826   87.1794   10.7043 C.ar    1  UNL1        0.1390
     17 N          61.3191   85.9584   11.4583 N.ar    1  UNL1       -0.2192
     18 O          61.2068   89.6848   10.0975 O.3     1  UNL1       -0.4683
     19 C          60.0750   90.5215   10.6158 C.3     1  UNL1        0.2526
     20 C          62.7952   80.0562   13.4268 C.3     1  UNL1        0.0085
     21 C          63.9076   81.0592   13.5083 C.3     1  UNL1        0.0676
     22 C          63.8588   89.7860   15.6361 C.2     1  UNL1        0.2459
     23 O          63.4844   90.9685   16.4796 O.2     1  UNL1       -0.2701
     24 N          64.6053   89.9878   14.3508 N.am    1  UNL1       -0.3009
     25 H          64.8510   89.2117   13.7972 H       1  UNL1        0.1497
     26 C          64.9774   91.3721   13.9090 C.3     1  UNL1        0.0897
     27 C          66.2527   91.9963   14.3928 C.3     1  UNL1        0.0216
     28 C          66.6901   93.3248   13.8508 C.3     1  UNL1        0.0064
     29 C          66.1230   93.8308   12.5576 C.3     1  UNL1        0.0264
     30 C          66.8485   93.5759   11.2697 C.ar    1  UNL1       -0.0222
     31 C          67.4907   92.2431   11.0218 C.ar    1  UNL1       -0.0043
     32 C          68.2162   91.9883    9.7339 C.ar    1  UNL1       -0.0003
     33 C          68.2995   93.0661    8.6940 C.ar    1  UNL1       -0.0000
     34 C          67.6574   94.3988    8.9419 C.ar    1  UNL1       -0.0003
     35 C          66.9318   94.6538   10.2298 C.ar    1  UNL1       -0.0043
@<TRIPOS>BOND
     1    20    21    1
     2    21     7    1
     3     7     8   ar
     4     8     9   ar
     5     9    12    1
     6    12    13   ar
     7    13    14   ar
     8    14    15   ar
     9    15    18    1
    10    18    19    1
    11    15    16   ar
    12    16    17   ar
    13     9    10   ar
    14    10     1    1
    15     1     2   ar
    16     2     3   ar
    17     3     4   ar
    18     4     5   ar
    19     5    22    1
    20    22    23    2
    21    22    24   am
    22    24    26    1
    23    26    27    1
    24    27    28    1
    25    28    29    1
    26    29    30    1
    27    30    31   ar
    28    31    32   ar
    29    32    33   ar
    30    33    34   ar
    31    34    35   ar
    32     5     6   ar
    33    10    11   ar
    34    11     7   ar
    35    17    12   ar
    36     6     1   ar
    37    35    30   ar
    38    24    25    1
@<TRIPOS>MOLECULE
*****
 35 38 0 0 0
SMALL
GASTEIGER

@<TRIPOS>ATOM
      1 C          63.1921   85.8458   15.4954 C.ar    1  UNL1        0.0847
      2 C          62.7344   85.6193   16.9059 C.ar    1  UNL1        0.0192
      3 C          62.6643   86.7700   17.8654 C.ar    1  UNL1        0.0017
      4 C          63.0518   88.1473   17.4147 C.ar    1  UNL1        0.0046
      5 C          63.5094   88.3737   16.0043 C.ar    1  UNL1        0.0549
      6 C          63.5796   87.2230   15.0447 C.ar    1  UNL1        0.0237
      7 C          63.5909   82.4731   13.6162 C.ar    1  UNL1        0.1608
      8 N          63.1494   83.3752   12.5021 N.ar    1  UNL1       -0.2073
      9 C          62.9463   84.7485   13.0704 C.ar    1  UNL1        0.2012
     10 N          63.2622   84.6951   14.5358 N.ar    1  UNL1       -0.2083
     11 N          63.6606   83.2888   14.8731 N.ar    1  UNL1       -0.1488
     12 C          62.5047   85.9621   12.3073 C.ar    1  UNL1        0.1992
     13 N          61.3270   85.8788   11.3822 N.ar    1  UNL1       -0.2192
     14 C          60.8855   87.0924   10.6191 C.ar    1  UNL1        0.1390
     15 C          61.6218   88.3892   10.7812 C.ar    1  UNL1        0.1769
     16 C          62.7995   88.4724   11.7063 C.ar    1  UNL1        0.1390
     17 N          63.2410   87.2588   12.4693 N.ar    1  UNL1       -0.2192
     18 O          61.1802   89.6028   10.0180 O.3     1  UNL1       -0.4683
     19 C          60.1137   90.4952   10.5801 C.3     1  UNL1        0.2526
     20 C          62.7954   80.0075   13.4206 C.3     1  UNL1        0.0085
     21 C          63.9071   81.0119   13.4948 C.3     1  UNL1        0.0676
     22 C          63.8969   89.7509   15.5535 C.2     1  UNL1        0.2459
     23 O          63.5167   90.9447   16.3782 O.2     1  UNL1       -0.2701
     24 N          64.6647   89.9342   14.2780 N.am    1  UNL1       -0.3009
     25 H          64.9142   89.1507   13.7367 H       1  UNL1        0.1497
     26 C          65.0522   91.3114   13.8271 C.3     1  UNL1        0.0897
     27 C          66.2803   91.9659   14.3871 C.3     1  UNL1        0.0216
     28 C          66.7358   93.2900   13.8491 C.3     1  UNL1        0.0064
     29 C          66.1531   93.8218   12.5734 C.3     1  UNL1        0.0264
     30 C          66.8593   93.5868   11.2710 C.ar    1  UNL1       -0.0222
     31 C          66.9020   94.6706   10.2349 C.ar    1  UNL1       -0.0043
     32 C          67.6082   94.4356    8.9325 C.ar    1  UNL1       -0.0003
     33 C          68.2716   93.1169    8.6664 C.ar    1  UNL1       -0.0000
     34 C          68.2288   92.0331    9.7025 C.ar    1  UNL1       -0.0003
     35 C          67.5226   92.2680   11.0049 C.ar    1  UNL1       -0.0043
@<TRIPOS>BOND
     1    20    21    1
     2    21     7    1
     3     7     8   ar
     4     8     9   ar
     5     9    12    1
     6    12    13   ar
     7    13    14   ar
     8    14    15   ar
     9    15    18    1
    10    18    19    1
    11    15    16   ar
    12    16    17   ar
    13     9    10   ar
    14    10     1    1
    15     1     2   ar
    16     2     3   ar
    17     3     4   ar
    18     4     5   ar
    19     5    22    1
    20    22    23    2
    21    22    24   am
    22    24    26    1
    23    26    27    1
    24    27    28    1
    25    28    29    1
    26    29    30    1
    27    30    31   ar
    28    31    32   ar
    29    32    33   ar
    30    33    34   ar
    31    34    35   ar
    32     5     6   ar
    33    10    11   ar
    34    11     7   ar
    35    17    12   ar
    36     6     1   ar
    37    35    30   ar
    38    24    25    1
@<TRIPOS>MOLECULE
*****
 35 38 0 0 0
SMALL
GASTEIGER

@<TRIPOS>ATOM
      1 C          62.2537   89.5113   12.0379 C.ar    1  UNL1        0.0847
      2 C          61.4254   90.5540   11.3474 C.ar    1  UNL1        0.0192
      3 C          60.8334   90.2696    9.9988 C.ar    1  UNL1        0.0017
      4 C          61.0697   88.9425    9.3407 C.ar    1  UNL1        0.0046
      5 C          61.8980   87.8999   10.0312 C.ar    1  UNL1        0.0549
      6 C          62.4899   88.1843   11.3798 C.ar    1  UNL1        0.0237
      7 C          63.3141   89.7099   15.7664 C.ar    1  UNL1        0.1608
      8 N          64.1988   90.7568   15.1573 N.ar    1  UNL1       -0.2073
      9 C          63.9092   90.8099   13.6864 C.ar    1  UNL1        0.2012
     10 N          62.8456   89.7957   13.3865 N.ar    1  UNL1       -0.2083
     11 N          62.4777   89.1158   14.6720 N.ar    1  UNL1       -0.1488
     12 C          64.5678   91.7178   12.6903 C.ar    1  UNL1        0.1992
     13 N          64.3010   91.5426   11.2247 N.ar    1  UNL1       -0.2192
     14 C          64.9595   92.4505   10.2288 C.ar    1  UNL1        0.1390
     15 C          65.8849   93.5336   10.6984 C.ar    1  UNL1        0.1769
     16 C          66.1517   93.7088   12.1640 C.ar    1  UNL1        0.1390
     17 N          65.4932   92.8009   13.1600 N.ar    1  UNL1       -0.2192
     18 O          66.5434   94.4416    9.7023 O.3     1  UNL1       -0.4683
     19 C          67.8919   94.0922    9.1459 C.3     1  UNL1        0.2526
     20 C          62.9691   87.9087   17.6067 C.3     1  UNL1        0.0085
     21 C          63.2729   89.3245   17.2155 C.3     1  UNL1        0.0676
     22 C          62.1343   86.5728    9.3732 C.2     1  UNL1        0.2459
     23 O          61.5411   86.2878    8.0253 O.2     1  UNL1       -0.2701
     24 N          62.9639   85.5307   10.0630 N.am    1  UNL1       -0.3009
     25 H          63.3533   85.7178   10.9476 H       1  UNL1        0.1497
     26 C          63.2002   84.2037    9.4049 C.3     1  UNL1        0.0897
     27 C          64.0474   83.1695   10.0854 C.3     1  UNL1        0.0216
     28 C          63.4188   82.1885   11.0301 C.3     1  UNL1        0.0064
     29 C          64.0057   81.9798   12.3947 C.3     1  UNL1        0.0264
     30 C          63.8017   83.0112   13.4646 C.ar    1  UNL1       -0.0222
     31 C          64.7238   84.1911   13.5544 C.ar    1  UNL1       -0.0043
     32 C          64.5198   85.2225   14.6243 C.ar    1  UNL1       -0.0003
     33 C          63.3939   85.0741   15.6042 C.ar    1  UNL1       -0.0000
     34 C          62.4719   83.8943   15.5144 C.ar    1  UNL1       -0.0003
     35 C          62.6758   82.8628   14.4445 C.ar    1  UNL1       -0.0043
@<TRIPOS>BOND
     1    20    21    1
     2    21     7    1
     3     7     8   ar
     4     8     9   ar
     5     9    12    1
     6    12    13   ar
     7    13    14   ar
     8    14    15   ar
     9    15    18    1
    10    18    19    1
    11    15    16   ar
    12    16    17   ar
    13     9    10   ar
    14    10     1    1
    15     1     2   ar
    16     2     3   ar
    17     3     4   ar
    18     4     5   ar
    19     5    22    1
    20    22    23    2
    21    22    24   am
    22    24    26    1
    23    26    27    1
    24    27    28    1
    25    28    29    1
    26    29    30    1
    27    30    31   ar
    28    31    32   ar
    29    32    33   ar
    30    33    34   ar
    31    34    35   ar
    32     5     6   ar
    33    10    11   ar
    34    11     7   ar
    35    17    12   ar
    36     6     1   ar
    37    35    30   ar
    38    24    25    1
@<TRIPOS>MOLECULE
*****
 35 38 0 0 0
SMALL
GASTEIGER

@<TRIPOS>ATOM
      1 C          62.5025   85.0671   10.8328 C.ar    1  UNL1        0.0847
      2 C          62.1713   85.2752    9.3846 C.ar    1  UNL1        0.0192
      3 C          61.9370   86.6610    8.8606 C.ar    1  UNL1        0.0017
      4 C          62.0338   87.8387    9.7845 C.ar    1  UNL1        0.0046
      5 C          62.3650   87.6306   11.2326 C.ar    1  UNL1        0.0549
      6 C          62.5993   86.2448   11.7567 C.ar    1  UNL1        0.0237
      7 C          63.0265   81.2742   11.4688 C.ar    1  UNL1        0.1608
      8 N          63.1685   81.8233   12.8575 N.ar    1  UNL1       -0.2073
      9 C          62.9895   83.3110   12.7882 C.ar    1  UNL1        0.2012
     10 N          62.7369   83.6813   11.3568 N.ar    1  UNL1       -0.2083
     11 N          62.7598   82.4226   10.5414 N.ar    1  UNL1       -0.1488
     12 C          63.0521   84.2615   13.9470 C.ar    1  UNL1        0.1992
     13 N          64.2213   85.1896   14.0934 N.ar    1  UNL1       -0.2192
     14 C          64.2839   86.1400   15.2522 C.ar    1  UNL1        0.1390
     15 C          63.1773   86.1623   16.2646 C.ar    1  UNL1        0.1769
     16 C          62.0081   85.2341   16.1182 C.ar    1  UNL1        0.1390
     17 N          61.9456   84.2837   14.9594 N.ar    1  UNL1       -0.2192
     18 O          63.2399   87.1127   17.4234 O.3     1  UNL1       -0.4683
     19 C          63.1328   88.5902   17.1881 C.3     1  UNL1        0.2526
     20 C          62.7583   79.4006    9.6890 C.3     1  UNL1        0.0085
     21 C          63.1327   79.8303   11.0766 C.3     1  UNL1        0.0676
     22 C          62.4618   88.8082   12.1567 C.2     1  UNL1        0.2459
     23 O          61.3223   89.7784   12.2571 O.2     1  UNL1       -0.2701
     24 N          63.6982   89.0155   12.9803 N.am    1  UNL1       -0.3009
     25 H          64.4461   88.3787   12.9145 H       1  UNL1        0.1497
     26 C          63.7950   90.1931   13.9044 C.3     1  UNL1        0.0897
     27 C          65.1064   90.8985   14.0854 C.3     1  UNL1        0.0216
     28 C          65.4209   92.1179   13.2704 C.3     1  UNL1        0.0064
     29 C          65.2927   92.0750   11.7765 C.3     1  UNL1        0.0264
     30 C          66.1907   92.9198   10.9221 C.ar    1  UNL1       -0.0222
     31 C          65.9505   94.3965   10.8131 C.ar    1  UNL1       -0.0043
     32 C          66.8486   95.2413    9.9588 C.ar    1  UNL1       -0.0003
     33 C          67.9866   94.6094    9.2135 C.ar    1  UNL1       -0.0000
     34 C          68.2268   93.1328    9.3225 C.ar    1  UNL1       -0.0003
     35 C          67.3288   92.2879   10.1768 C.ar    1  UNL1       -0.0043
@<TRIPOS>BOND
     1    20    21    1
     2    21     7    1
     3     7     8   ar
     4     8     9   ar
     5     9    12    1
     6    12    13   ar
     7    13    14   ar
     8    14    15   ar
     9    15    18    1
    10    18    19    1
    11    15    16   ar
    12    16    17   ar
    13     9    10   ar
    14    10     1    1
    15     1     2   ar
    16     2     3   ar
    17     3     4   ar
    18     4     5   ar
    19     5    22    1
    20    22    23    2
    21    22    24   am
    22    24    26    1
    23    26    27    1
    24    27    28    1
    25    28    29    1
    26    29    30    1
    27    30    31   ar
    28    31    32   ar
    29    32    33   ar
    30    33    34   ar
    31    34    35   ar
    32     5     6   ar
    33    10    11   ar
    34    11     7   ar
    35    17    12   ar
    36     6     1   ar
    37    35    30   ar
    38    24    25    1
@<TRIPOS>MOLECULE
*****
 35 38 0 0 0
SMALL
GASTEIGER

@<TRIPOS>ATOM
      1 C          63.4377   88.1417   12.7349 C.ar    1  UNL1        0.0847
      2 C          62.8616   88.9168   11.5871 C.ar    1  UNL1        0.0192
      3 C          63.0604   90.4015   11.5099 C.ar    1  UNL1        0.0017
      4 C          63.8353   91.1112   12.5804 C.ar    1  UNL1        0.0046
      5 C          64.4113   90.3361   13.7281 C.ar    1  UNL1        0.0549
      6 C          64.2125   88.8514   13.8054 C.ar    1  UNL1        0.0237
      7 C          63.4038   84.3394   13.5139 C.ar    1  UNL1        0.1608
      8 N          62.4621   84.4048   12.3482 N.ar    1  UNL1       -0.2073
      9 C          62.3602   85.8371   11.9145 C.ar    1  UNL1        0.2012
     10 N          63.2389   86.6569   12.8122 N.ar    1  UNL1       -0.2083
     11 N          63.8838   85.7313   13.8007 N.ar    1  UNL1       -0.1488
     12 C          61.5260   86.3582   10.7819 C.ar    1  UNL1        0.1992
     13 N          60.4394   87.3572   11.0485 N.ar    1  UNL1       -0.2192
     14 C          59.6052   87.8782    9.9159 C.ar    1  UNL1        0.1390
     15 C          59.8577   87.4001    8.5167 C.ar    1  UNL1        0.1769
     16 C          60.9444   86.4011    8.2501 C.ar    1  UNL1        0.1390
     17 N          61.7785   85.8801    9.3827 N.ar    1  UNL1       -0.2192
     18 O          59.0236   87.9212    7.3841 O.3     1  UNL1       -0.4683
     19 C          59.3485   89.2464    6.7611 C.3     1  UNL1        0.2526
     20 C          63.1410   81.7897   13.9385 C.3     1  UNL1        0.0085
     21 C          63.7964   83.0997   14.2616 C.3     1  UNL1        0.0676
     22 C          65.1861   91.0457   14.7987 C.2     1  UNL1        0.2459
     23 O          64.4629   91.7116   15.9316 O.2     1  UNL1       -0.2701
     24 N          66.6842   91.0895   14.7363 N.am    1  UNL1       -0.3009
     25 H          67.1589   90.6525   13.9927 H       1  UNL1        0.1497
     26 C          67.4590   91.7991   15.8068 C.3     1  UNL1        0.0897
     27 C          67.4555   93.2980   15.8666 C.3     1  UNL1        0.0216
     28 C          67.3610   94.0987   14.6017 C.3     1  UNL1        0.0064
     29 C          66.2894   93.7916   13.5980 C.3     1  UNL1        0.0264
     30 C          66.6115   93.7930   12.1330 C.ar    1  UNL1       -0.0222
     31 C          67.1744   92.5613   11.4877 C.ar    1  UNL1       -0.0043
     32 C          67.4965   92.5627   10.0227 C.ar    1  UNL1       -0.0003
     33 C          67.2555   93.7956    9.2030 C.ar    1  UNL1       -0.0000
     34 C          66.6926   95.0271    9.8482 C.ar    1  UNL1       -0.0003
     35 C          66.3705   95.0258   11.3132 C.ar    1  UNL1       -0.0043
@<TRIPOS>BOND
     1    20    21    1
     2    21     7    1
     3     7     8   ar
     4     8     9   ar
     5     9    12    1
     6    12    13   ar
     7    13    14   ar
     8    14    15   ar
     9    15    18    1
    10    18    19    1
    11    15    16   ar
    12    16    17   ar
    13     9    10   ar
    14    10     1    1
    15     1     2   ar
    16     2     3   ar
    17     3     4   ar
    18     4     5   ar
    19     5    22    1
    20    22    23    2
    21    22    24   am
    22    24    26    1
    23    26    27    1
    24    27    28    1
    25    28    29    1
    26    29    30    1
    27    30    31   ar
    28    31    32   ar
    29    32    33   ar
    30    33    34   ar
    31    34    35   ar
    32     5     6   ar
    33    10    11   ar
    34    11     7   ar
    35    17    12   ar
    36     6     1   ar
    37    35    30   ar
    38    24    25    1
@<TRIPOS>MOLECULE
*****
 35 38 0 0 0
SMALL
GASTEIGER

@<TRIPOS>ATOM
      1 C          63.6587   86.3913   13.6915 C.ar    1  UNL1        0.0847
      2 C          64.1190   86.4681   15.1171 C.ar    1  UNL1        0.0192
      3 C          64.3914   87.8022   15.7463 C.ar    1  UNL1        0.0017
      4 C          64.2035   89.0595   14.9501 C.ar    1  UNL1        0.0046
      5 C          63.7432   88.9827   13.5246 C.ar    1  UNL1        0.0549
      6 C          63.4708   87.6486   12.8953 C.ar    1  UNL1        0.0237
      7 C          63.3583   82.6676   12.6382 C.ar    1  UNL1        0.1608
      8 N          62.5760   83.3408   11.5497 N.ar    1  UNL1       -0.2073
      9 C          62.5933   84.8176   11.8117 C.ar    1  UNL1        0.2012
     10 N          63.3863   85.0572   13.0622 N.ar    1  UNL1       -0.2083
     11 N          63.8591   83.7285   13.5730 N.ar    1  UNL1       -0.1488
     12 C          61.9334   85.8701   10.9709 C.ar    1  UNL1        0.1992
     13 N          60.8744   86.7503   11.5657 N.ar    1  UNL1       -0.2192
     14 C          60.2146   87.8026   10.7248 C.ar    1  UNL1        0.1390
     15 C          60.6137   87.9749    9.2892 C.ar    1  UNL1        0.1769
     16 C          61.6727   87.0947    8.6944 C.ar    1  UNL1        0.1390
     17 N          62.3325   86.0423    9.5353 N.ar    1  UNL1       -0.2192
     18 O          59.9538   89.0273    8.4484 O.3     1  UNL1       -0.4683
     19 C          59.2297   88.6396    7.1933 C.3     1  UNL1        0.2526
     20 C          62.4634   80.2771   13.1224 C.3     1  UNL1        0.0085
     21 C          63.5978   81.1927   12.7689 C.3     1  UNL1        0.0676
     22 C          63.5553   90.2399   12.7283 C.2     1  UNL1        0.2459
     23 O          63.3477   91.5488   13.4310 O.2     1  UNL1       -0.2701
     24 N          63.5750   90.1883   11.2293 N.am    1  UNL1       -0.3009
     25 H          63.7113   89.3292   10.7681 H       1  UNL1        0.1497
     26 C          63.3871   91.4455   10.4330 C.3     1  UNL1        0.0897
     27 C          64.5248   92.4104   10.2753 C.3     1  UNL1        0.0216
     28 C          65.7011   92.3410   11.2034 C.3     1  UNL1        0.0064
     29 C          65.8433   93.3432   12.3103 C.3     1  UNL1        0.0264
     30 C          66.5911   92.9804   13.5590 C.ar    1  UNL1       -0.0222
     31 C          67.1318   94.0597   14.4496 C.ar    1  UNL1       -0.0043
     32 C          67.8796   93.6969   15.6983 C.ar    1  UNL1       -0.0003
     33 C          68.0866   92.2551   16.0564 C.ar    1  UNL1       -0.0000
     34 C          67.5459   91.1760   15.1659 C.ar    1  UNL1       -0.0003
     35 C          66.7981   91.5386   13.9171 C.ar    1  UNL1       -0.0043
@<TRIPOS>BOND
     1    20    21    1
     2    21     7    1
     3     7     8   ar
     4     8     9   ar
     5     9    12    1
     6    12    13   ar
     7    13    14   ar
     8    14    15   ar
     9    15    18    1
    10    18    19    1
    11    15    16   ar
    12    16    17   ar
    13     9    10   ar
    14    10     1    1
    15     1     2   ar
    16     2     3   ar
    17     3     4   ar
    18     4     5   ar
    19     5    22    1
    20    22    23    2
    21    22    24   am
    22    24    26    1
    23    26    27    1
    24    27    28    1
    25    28    29    1
    26    29    30    1
    27    30    31   ar
    28    31    32   ar
    29    32    33   ar
    30    33    34   ar
    31    34    35   ar
    32     5     6   ar
    33    10    11   ar
    34    11     7   ar
    35    17    12   ar
    36     6     1   ar
    37    35    30   ar
    38    24    25    1
@<TRIPOS>MOLECULE
*****
 35 38 0 0 0
SMALL
GASTEIGER

@<TRIPOS>ATOM
      1 C          63.1756   87.8489   12.5388 C.ar    1  UNL1        0.0847
      2 C          63.6132   86.6231   13.2844 C.ar    1  UNL1        0.0192
      3 C          64.4139   86.7585   14.5456 C.ar    1  UNL1        0.0017
      4 C          64.7770   88.1195   15.0612 C.ar    1  UNL1        0.0046
      5 C          64.3393   89.3452   14.3155 C.ar    1  UNL1        0.0549
      6 C          63.5386   89.2099   13.0543 C.ar    1  UNL1        0.0237
      7 C          61.0436   88.2485    9.3200 C.ar    1  UNL1        0.1608
      8 N          61.2419   86.7621    9.3537 N.ar    1  UNL1       -0.2073
      9 C          62.0646   86.4314   10.5635 C.ar    1  UNL1        0.2012
     10 N          62.3749   87.7135   11.2776 N.ar    1  UNL1       -0.2083
     11 N          61.7439   88.8366   10.5091 N.ar    1  UNL1       -0.1488
     12 C          62.5006   85.0595   10.9853 C.ar    1  UNL1        0.1992
     13 N          62.0446   84.4986   12.2996 N.ar    1  UNL1       -0.2192
     14 C          62.4806   83.1267   12.7212 C.ar    1  UNL1        0.1390
     15 C          63.3725   82.3157   11.8286 C.ar    1  UNL1        0.1769
     16 C          63.8284   82.8766   10.5143 C.ar    1  UNL1        0.1390
     17 N          63.3925   84.2485   10.0926 N.ar    1  UNL1       -0.2192
     18 O          63.8084   80.9438   12.2503 O.3     1  UNL1       -0.4683
     19 C          63.3153   80.3644   13.5431 C.3     1  UNL1        0.2526
     20 C          59.2348   88.3194    7.4563 C.3     1  UNL1        0.0085
     21 C          60.2793   89.0127    8.2799 C.3     1  UNL1        0.0676
     22 C          64.7023   90.7063   14.8310 C.2     1  UNL1        0.2459
     23 O          63.6244   91.6628   15.2470 O.2     1  UNL1       -0.2701
     24 N          66.1433   91.1109   14.9304 N.am    1  UNL1       -0.3009
     25 H          66.8508   90.4831   14.6574 H       1  UNL1        0.1497
     26 C          66.5063   92.4719   15.4459 C.3     1  UNL1        0.0897
     27 C          66.8405   93.5735   14.4842 C.3     1  UNL1        0.0216
     28 C          66.1770   93.6223   13.1398 C.3     1  UNL1        0.0064
     29 C          66.4832   92.5719   12.1137 C.3     1  UNL1        0.0264
     30 C          67.0768   92.9638   10.7931 C.ar    1  UNL1       -0.0222
     31 C          67.9953   92.0206   10.0743 C.ar    1  UNL1       -0.0043
     32 C          68.5890   92.4126    8.7537 C.ar    1  UNL1       -0.0003
     33 C          68.2642   93.7477    8.1520 C.ar    1  UNL1       -0.0000
     34 C          67.3457   94.6908    8.8709 C.ar    1  UNL1       -0.0003
     35 C          66.7520   94.2989   10.1915 C.ar    1  UNL1       -0.0043
@<TRIPOS>BOND
     1    20    21    1
     2    21     7    1
     3     7     8   ar
     4     8     9   ar
     5     9    12    1
     6    12    13   ar
     7    13    14   ar
     8    14    15   ar
     9    15    18    1
    10    18    19    1
    11    15    16   ar
    12    16    17   ar
    13     9    10   ar
    14    10     1    1
    15     1     2   ar
    16     2     3   ar
    17     3     4   ar
    18     4     5   ar
    19     5    22    1
    20    22    23    2
    21    22    24   am
    22    24    26    1
    23    26    27    1
    24    27    28    1
    25    28    29    1
    26    29    30    1
    27    30    31   ar
    28    31    32   ar
    29    32    33   ar
    30    33    34   ar
    31    34    35   ar
    32     5     6   ar
    33    10    11   ar
    34    11     7   ar
    35    17    12   ar
    36     6     1   ar
    37    35    30   ar
    38    24    25    1
