@<TRIPOS>MOLECULE
*****
 32 35 0 0 0
SMALL
GASTEIGER

@<TRIPOS>ATOM
      1 N          65.1222   90.8716   12.9920 N.am    1  UNL1       -0.2681
      2 C          64.0635   90.2197   12.1529 C.2     1  UNL1        0.3077
      3 O          63.3383   91.0158   11.1088 O.2     1  UNL1       -0.2522
      4 N          63.7300   88.7717   12.3579 N.am    1  UNL1       -0.2640
      5 C          64.3672   87.8532   13.3581 C.3     1  UNL1        0.0950
      6 C          63.7317   86.5018   13.2170 C.3     1  UNL1        0.0219
      7 C          63.7328   85.0989   13.7480 C.3     1  UNL1        0.0061
      8 C          62.7035   84.3151   12.9888 C.3     1  UNL1        0.0224
      9 C          62.0663   85.2337   11.9886 C.3     1  UNL1        0.0061
     10 C          62.7018   86.5851   12.1297 C.3     1  UNL1        0.0219
     11 C          62.7007   87.9880   11.5987 C.3     1  UNL1        0.0950
     12 H          65.5982   90.3490   13.6773 H       1  UNL1        0.1564
     13 C          65.9693   93.1404   13.9328 C.ar    1  UNL1        0.0297
     14 C          66.3028   94.5884   13.7277 C.ar    1  UNL1        0.0320
     15 C          66.1229   95.2155   12.3770 C.ar    1  UNL1        0.1403
     16 F          66.4565   96.6635   12.1720 F       1  UNL1       -0.2042
     17 C          65.6095   94.3947   11.2314 C.ar    1  UNL1        0.0309
     18 C          65.2759   92.9467   11.4364 C.ar    1  UNL1        0.0171
     19 C          65.4558   92.3196   12.7871 C.ar    1  UNL1        0.0528
     20 O          64.9598   91.9856   16.0298 O.co2   1  UNL1       -0.5446
     21 C          66.1492   92.5133   15.2834 C.2     1  UNL1        0.0741
     22 O          67.5184   92.4138   15.8877 O.co2   1  UNL1       -0.5446
     23 C          62.3700   82.8672   13.1938 C.ar    1  UNL1       -0.0186
     24 C          61.4282   82.4622   14.2887 C.ar    1  UNL1       -0.0043
     25 C          61.0946   81.0142   14.4938 C.ar    1  UNL1       -0.0003
     26 C          61.7029   79.9711   13.6038 C.ar    1  UNL1       -0.0001
     27 C          62.6448   80.3762   12.5088 C.ar    1  UNL1        0.0035
     28 C          62.9783   81.8241   12.3038 C.ar    1  UNL1        0.0675
     29 C          63.9201   82.2291   11.2089 C.3     1  UNL1        0.4183
     30 F          64.8620   82.6341   10.1139 F       1  UNL1       -0.1659
     31 F          65.0100   82.4282   12.2200 F       1  UNL1       -0.1659
     32 F          62.8302   82.0300   10.1977 F       1  UNL1       -0.1659
@<TRIPOS>UNITY_ATOM_ATTR
20 1
charge -1
@<TRIPOS>BOND
     1    20    21   ar
     2    21    22   ar
     3    21    13    1
     4    13    14   ar
     5    14    15   ar
     6    15    16    1
     7    15    17   ar
     8    17    18   ar
     9    18    19   ar
    10    19     1    1
    11     1     2   am
    12     2     3    2
    13     2     4   am
    14     4     5    1
    15     6     5    1
    16     6     7    1
    17     7     8    1
    18     8    23    1
    19    23    24   ar
    20    24    25   ar
    21    25    26   ar
    22    26    27   ar
    23    27    28   ar
    24    28    29    1
    25    29    30    1
    26    29    31    1
    27    29    32    1
    28     8     9    1
    29    10     9    1
    30    10    11    1
    31    19    13   ar
    32    11     4    1
    33    10     6    1
    34    28    23   ar
    35     1    12    1
@<TRIPOS>MOLECULE
*****
 32 35 0 0 0
SMALL
GASTEIGER

@<TRIPOS>ATOM
      1 N          73.0574   75.2197   14.7609 N.am    1  UNL1       -0.2681
      2 C          72.0301   76.2236   14.3286 C.2     1  UNL1        0.3077
      3 O          70.8405   76.5016   15.1989 O.2     1  UNL1       -0.2522
      4 N          72.1925   76.9494   13.0259 N.am    1  UNL1       -0.2640
      5 C          73.3234   76.7773   12.0557 C.3     1  UNL1        0.0950
      6 C          73.0822   77.6964   10.8950 C.3     1  UNL1        0.0219
      7 C          73.6321   78.1580    9.5780 C.3     1  UNL1        0.0061
      8 C          72.6920   79.1834    9.0169 C.3     1  UNL1        0.0224
      9 C          71.5611   79.3555    9.9872 C.3     1  UNL1        0.0061
     10 C          71.8022   78.4364   11.1479 C.3     1  UNL1        0.0219
     11 C          71.2523   77.9748   12.4649 C.3     1  UNL1        0.0950
     12 H          73.8382   75.0373   14.1896 H       1  UNL1        0.1564
     13 C          72.0044   73.2898   16.1452 C.ar    1  UNL1        0.0297
     14 C          71.8422   72.5639   17.4478 C.ar    1  UNL1        0.0320
     15 C          72.5708   73.0422   18.6687 C.ar    1  UNL1        0.1403
     16 F          72.4086   72.3163   19.9713 F       1  UNL1       -0.2042
     17 C          73.4616   74.2462   18.5870 C.ar    1  UNL1        0.0309
     18 C          73.6238   74.9720   17.2843 C.ar    1  UNL1        0.0171
     19 C          72.8952   74.4938   16.0635 C.ar    1  UNL1        0.0528
     20 O          69.8600   73.2420   14.6792 O.co2   1  UNL1       -0.5446
     21 C          71.2758   72.8115   14.9244 C.2     1  UNL1        0.0741
     22 O          71.9631   71.9028   13.9487 O.co2   1  UNL1       -0.5446
     23 C          72.8543   79.9092    7.7144 C.ar    1  UNL1       -0.0186
     24 C          73.1706   79.1440    6.4637 C.ar    1  UNL1       -0.0043
     25 C          73.3329   79.8698    5.1610 C.ar    1  UNL1       -0.0003
     26 C          73.1790   81.3609    5.1091 C.ar    1  UNL1       -0.0001
     27 C          72.8627   82.1263    6.3599 C.ar    1  UNL1        0.0035
     28 C          72.7004   81.4005    7.6624 C.ar    1  UNL1        0.0675
     29 C          72.3841   82.1657    8.9132 C.3     1  UNL1        0.4183
     30 F          72.0679   82.9310   10.1639 F       1  UNL1       -0.1659
     31 F          71.1438   82.7084    8.2675 F       1  UNL1       -0.1659
     32 F          73.6245   81.6231    9.5589 F       1  UNL1       -0.1659
@<TRIPOS>UNITY_ATOM_ATTR
20 1
charge -1
@<TRIPOS>BOND
     1    20    21   ar
     2    21    22   ar
     3    21    13    1
     4    13    14   ar
     5    14    15   ar
     6    15    16    1
     7    15    17   ar
     8    17    18   ar
     9    18    19   ar
    10    19     1    1
    11     1     2   am
    12     2     3    2
    13     2     4   am
    14     4     5    1
    15     6     5    1
    16     6     7    1
    17     7     8    1
    18     8    23    1
    19    23    24   ar
    20    24    25   ar
    21    25    26   ar
    22    26    27   ar
    23    27    28   ar
    24    28    29    1
    25    29    30    1
    26    29    31    1
    27    29    32    1
    28     8     9    1
    29    10     9    1
    30    10    11    1
    31    19    13   ar
    32    11     4    1
    33    10     6    1
    34    28    23   ar
    35     1    12    1
@<TRIPOS>MOLECULE
*****
 32 35 0 0 0
SMALL
GASTEIGER

@<TRIPOS>ATOM
      1 N          62.8109   85.0251   12.9012 N.am    1  UNL1       -0.2681
      2 C          63.5847   85.7824   13.9393 C.2     1  UNL1        0.3077
      3 O          63.9717   85.1115   15.2239 O.2     1  UNL1       -0.2522
      4 N          63.9715   87.2106   13.6929 N.am    1  UNL1       -0.2640
      5 C          63.6566   88.0097   12.4632 C.3     1  UNL1        0.0950
      6 C          64.2316   89.3834   12.6433 C.3     1  UNL1        0.0219
      7 C          64.3924   90.7262   11.9946 C.3     1  UNL1        0.0061
      8 C          65.1619   91.6061   12.9347 C.3     1  UNL1        0.0224
      9 C          65.4767   90.8069   14.1645 C.3     1  UNL1        0.0061
     10 C          64.9018   89.4332   13.9844 C.3     1  UNL1        0.0219
     11 C          64.7410   88.0903   14.6331 C.3     1  UNL1        0.0950
     12 H          62.5569   85.4655   12.0581 H       1  UNL1        0.1564
     13 C          62.7564   82.5441   12.1321 C.ar    1  UNL1        0.0297
     14 C          62.3695   81.1159   12.3785 C.ar    1  UNL1        0.0320
     15 C          61.6503   80.7407   13.6402 C.ar    1  UNL1        0.1403
     16 F          61.2635   79.3125   13.8866 F       1  UNL1       -0.2042
     17 C          61.3180   81.7935   14.6556 C.ar    1  UNL1        0.0309
     18 C          61.7049   83.2217   14.4092 C.ar    1  UNL1        0.0171
     19 C          62.4240   83.5969   13.1475 C.ar    1  UNL1        0.0528
     20 O          63.1846   84.2308   10.2029 O.co2   1  UNL1       -0.5446
     21 C          63.4756   82.9193   10.8704 C.2     1  UNL1        0.0741
     22 O          64.4857   81.9832   10.2761 O.co2   1  UNL1       -0.5446
     23 C          65.5487   93.0342   12.6884 C.ar    1  UNL1       -0.0186
     24 C          65.1331   93.7154   11.4182 C.ar    1  UNL1       -0.0043
     25 C          65.5199   95.1436   11.1718 C.ar    1  UNL1       -0.0003
     26 C          66.3223   95.8906   12.1956 C.ar    1  UNL1       -0.0001
     27 C          66.7379   95.2094   13.4658 C.ar    1  UNL1        0.0035
     28 C          66.3511   93.7813   13.7122 C.ar    1  UNL1        0.0675
     29 C          66.7666   93.1001   14.9823 C.3     1  UNL1        0.4183
     30 F          67.1821   92.4189   16.2525 F       1  UNL1       -0.1659
     31 F          65.4266   93.4043   15.5839 F       1  UNL1       -0.1659
     32 F          68.1066   92.7959   14.3808 F       1  UNL1       -0.1659
@<TRIPOS>UNITY_ATOM_ATTR
20 1
charge -1
@<TRIPOS>BOND
     1    20    21   ar
     2    21    22   ar
     3    21    13    1
     4    13    14   ar
     5    14    15   ar
     6    15    16    1
     7    15    17   ar
     8    17    18   ar
     9    18    19   ar
    10    19     1    1
    11     1     2   am
    12     2     3    2
    13     2     4   am
    14     4     5    1
    15     6     5    1
    16     6     7    1
    17     7     8    1
    18     8    23    1
    19    23    24   ar
    20    24    25   ar
    21    25    26   ar
    22    26    27   ar
    23    27    28   ar
    24    28    29    1
    25    29    30    1
    26    29    31    1
    27    29    32    1
    28     8     9    1
    29    10     9    1
    30    10    11    1
    31    19    13   ar
    32    11     4    1
    33    10     6    1
    34    28    23   ar
    35     1    12    1
@<TRIPOS>MOLECULE
*****
 32 35 0 0 0
SMALL
GASTEIGER

@<TRIPOS>ATOM
      1 N          65.1268   91.0855   12.6573 N.am    1  UNL1       -0.2681
      2 C          64.0702   90.4051   11.8383 C.2     1  UNL1        0.3077
      3 O          63.3416   91.1673   10.7715 O.2     1  UNL1       -0.2522
      4 N          63.7423   88.9625   12.0862 N.am    1  UNL1       -0.2640
      5 C          64.3834   88.0764   13.1127 C.3     1  UNL1        0.0950
      6 C          63.7530   86.7190   13.0119 C.3     1  UNL1        0.0219
      7 C          63.7595   85.3324   13.5841 C.3     1  UNL1        0.0061
      8 C          62.7329   84.5227   12.8489 C.3     1  UNL1        0.0224
      9 C          62.0918   85.4089   11.8224 C.3     1  UNL1        0.0061
     10 C          62.7223   86.7663   11.9231 C.3     1  UNL1        0.0219
     11 C          62.7157   88.1528   11.3510 C.3     1  UNL1        0.0950
     12 H          65.6050   90.5852   13.3575 H       1  UNL1        0.1564
     13 C          66.0208   93.3691   13.5151 C.ar    1  UNL1        0.0297
     14 C          66.3488   94.8117   13.2672 C.ar    1  UNL1        0.0320
     15 C          66.1108   95.4131   11.9138 C.ar    1  UNL1        0.1403
     16 F          66.4388   96.8557   11.6660 F       1  UNL1       -0.2042
     17 C          65.5448   94.5721   10.8083 C.ar    1  UNL1        0.0309
     18 C          65.2168   93.1295   11.0562 C.ar    1  UNL1        0.0171
     19 C          65.4548   92.5281   12.4095 C.ar    1  UNL1        0.0528
     20 O          67.4071   93.2424   15.7087 O.co2   1  UNL1       -0.5446
     21 C          66.2588   92.7677   14.8684 C.2     1  UNL1        0.0741
     22 O          65.3485   91.6915   15.3815 O.co2   1  UNL1       -0.5446
     23 C          62.4050   83.0802   13.0967 C.ar    1  UNL1       -0.0186
     24 C          62.3108   82.1238   11.9450 C.ar    1  UNL1       -0.0043
     25 C          61.9829   80.6812   12.1928 C.ar    1  UNL1       -0.0003
     26 C          61.7490   80.1950   13.5924 C.ar    1  UNL1       -0.0001
     27 C          61.8431   81.1514   14.7442 C.ar    1  UNL1        0.0035
     28 C          62.1711   82.5939   14.4964 C.ar    1  UNL1        0.0675
     29 C          62.2652   83.5502   15.6481 C.3     1  UNL1        0.4183
     30 F          62.3593   84.5066   16.7999 F       1  UNL1       -0.1659
     31 F          60.9229   84.1150   15.2888 F       1  UNL1       -0.1659
     32 F          63.6075   82.9854   16.0074 F       1  UNL1       -0.1659
@<TRIPOS>UNITY_ATOM_ATTR
20 1
charge -1
@<TRIPOS>BOND
     1    20    21   ar
     2    21    22   ar
     3    21    13    1
     4    13    14   ar
     5    14    15   ar
     6    15    16    1
     7    15    17   ar
     8    17    18   ar
     9    18    19   ar
    10    19     1    1
    11     1     2   am
    12     2     3    2
    13     2     4   am
    14     4     5    1
    15     6     5    1
    16     6     7    1
    17     7     8    1
    18     8    23    1
    19    23    24   ar
    20    24    25   ar
    21    25    26   ar
    22    26    27   ar
    23    27    28   ar
    24    28    29    1
    25    29    30    1
    26    29    31    1
    27    29    32    1
    28     8     9    1
    29    10     9    1
    30    10    11    1
    31    19    13   ar
    32    11     4    1
    33    10     6    1
    34    28    23   ar
    35     1    12    1
