@<TRIPOS>MOLECULE
*****
 44 49 0 0 0
SMALL
GASTEIGER

@<TRIPOS>ATOM
      1 N          59.4414   88.9556    7.6233 N.3     1  UNL1       -0.2688
      2 C          59.9687   87.5594    7.4718 C.3     1  UNL1        0.0741
      3 C          60.8069   86.9524    8.5576 C.3     1  UNL1        0.0372
      4 C          61.1179   87.7415    9.7948 C.3     1  UNL1        0.0799
      5 C          60.5906   89.1376    9.9462 C.3     1  UNL1        0.0372
      6 C          59.7524   89.7446    8.8605 C.3     1  UNL1        0.0741
      7 N          61.9561   87.1345   10.8806 N.am    1  UNL1       -0.2618
      8 C          61.9602   85.6910   11.2885 C.2     1  UNL1        0.3074
      9 O          61.1266   84.6012   10.6824 O.2     1  UNL1       -0.2523
     10 N          62.9440   85.5287   12.4091 N.am    1  UNL1       -0.2635
     11 C          63.5481   86.8719   12.6937 C.3     1  UNL1        0.1192
     12 C          62.9375   87.8643   11.7490 C.3     1  UNL1        0.1191
     13 C          63.2671   84.2481   13.1202 C.3     1  UNL1        0.0819
     14 C          63.1921   84.1819   14.6169 C.3     1  UNL1        0.0520
     15 C          63.5151   82.9013   15.3280 C.3     1  UNL1        0.1439
     16 O          63.9132   81.6870   14.5424 O.3     1  UNL1       -0.3537
     17 C          63.9882   81.7533   13.0458 C.3     1  UNL1        0.1439
     18 C          63.6651   83.0339   12.3347 C.3     1  UNL1        0.0520
     19 C          63.2530   89.3293   11.6842 C.ar    1  UNL1       -0.0026
     20 C          63.1853   90.0538   10.3724 C.ar    1  UNL1       -0.0026
     21 C          63.5008   91.5188   10.3076 C.ar    1  UNL1       -0.0003
     22 C          63.8840   92.2594   11.5544 C.ar    1  UNL1       -0.0000
     23 C          63.9518   91.5349   12.8661 C.ar    1  UNL1       -0.0003
     24 C          63.6363   90.0700   12.9310 C.ar    1  UNL1       -0.0026
     25 C          58.6032   89.5626    6.5375 C.3     1  UNL1        0.1003
     26 C          56.8636   91.4760    5.0168 C.3     1  UNL1        0.0519
     27 C          58.3484   91.4808    4.8038 C.ar    1  UNL1        0.0598
     28 N          58.9634   92.4422    3.8305 N.ar    1  UNL1       -0.2160
     29 C          60.4482   92.4470    3.6176 C.ar    1  UNL1        0.2293
     30 C          61.3180   91.4903    4.3779 C.ar    1  UNL1        0.0578
     31 C          60.7030   90.5289    5.3512 C.ar    1  UNL1        0.0031
     32 C          59.2182   90.5241    5.5642 C.ar    1  UNL1        0.0077
     33 O          61.0632   93.4085    2.6442 O.3     1  UNL1       -0.4361
     34 C          60.6246   93.4069    1.2097 C.ar    1  UNL1        0.1472
     35 C          59.3215   94.0413    0.8231 C.ar    1  UNL1        0.0377
     36 C          58.8829   94.0397   -0.6113 C.ar    1  UNL1        0.0076
     37 C          59.7476   93.4036   -1.6592 C.ar    1  UNL1        0.0533
     38 C          61.0506   92.7693   -1.2726 C.ar    1  UNL1        0.0076
     39 C          61.4892   92.7709    0.1619 C.ar    1  UNL1        0.0377
     40 C          59.3090   93.4020   -3.0937 C.2     1  UNL1        0.2427
     41 N          58.2242   92.4696   -3.5452 N.am    1  UNL1       -0.3253
     42 O          59.9552   94.3328   -4.0765 O.2     1  UNL1       -0.2704
     43 H          57.8001   91.8587   -2.9001 H       1  UNL1        0.1453
     44 H          57.9364   92.4685   -4.4867 H       1  UNL1        0.1453
@<TRIPOS>BOND
     1    26    27    1
     2    27    28   ar
     3    28    29   ar
     4    29    33    1
     5    33    34    1
     6    34    35   ar
     7    35    36   ar
     8    36    37   ar
     9    37    40    1
    10    40    41   am
    11    40    42    2
    12    37    38   ar
    13    38    39   ar
    14    29    30   ar
    15    30    31   ar
    16    31    32   ar
    17    32    25    1
    18    25     1    1
    19     1     2    1
    20     2     3    1
    21     3     4    1
    22     4     7    1
    23     7     8   am
    24     8     9    2
    25     8    10   am
    26    10    13    1
    27    13    14    1
    28    14    15    1
    29    15    16    1
    30    16    17    1
    31    17    18    1
    32    10    11    1
    33    11    12    1
    34    12    19    1
    35    19    20   ar
    36    20    21   ar
    37    21    22   ar
    38    22    23   ar
    39    23    24   ar
    40     4     5    1
    41     5     6    1
    42    32    27   ar
    43     6     1    1
    44    39    34   ar
    45    12     7    1
    46    24    19   ar
    47    18    13    1
    48    41    43    1
    49    41    44    1
@<TRIPOS>MOLECULE
*****
 44 49 0 0 0
SMALL
GASTEIGER

@<TRIPOS>ATOM
      1 N          60.0753   89.0443    8.3923 N.3     1  UNL1       -0.2688
      2 C          61.2507   88.1159    8.4727 C.3     1  UNL1        0.0741
      3 C          62.1608   88.1596    9.6643 C.3     1  UNL1        0.0372
      4 C          61.8954   89.1317   10.7755 C.3     1  UNL1        0.0799
      5 C          60.7200   90.0600   10.6950 C.3     1  UNL1        0.0372
      6 C          59.8099   90.0163    9.5035 C.3     1  UNL1        0.0741
      7 N          62.8055   89.1754   11.9670 N.am    1  UNL1       -0.2618
      8 C          63.3438   90.4136   12.6204 C.2     1  UNL1        0.3074
      9 O          63.0667   91.8256   12.1968 O.2     1  UNL1       -0.2523
     10 N          64.2081   89.9920   13.7716 N.am    1  UNL1       -0.2635
     11 C          64.2038   88.4932   13.8298 C.3     1  UNL1        0.1192
     12 C          63.3370   87.9885   12.7145 C.3     1  UNL1        0.1191
     13 C          64.9468   90.9084   14.7014 C.3     1  UNL1        0.0819
     14 C          64.2656   91.4418   15.9268 C.3     1  UNL1        0.0520
     15 C          65.0044   92.3581   16.8566 C.3     1  UNL1        0.1439
     16 O          66.4242   92.7411   16.5610 O.3     1  UNL1       -0.3537
     17 C          67.1053   92.2078   15.3356 C.3     1  UNL1        0.1439
     18 C          66.3666   91.2914   14.4058 C.3     1  UNL1        0.0520
     19 C          63.0517   86.5494   12.4017 C.ar    1  UNL1       -0.0026
     20 C          62.2910   86.1883   11.1603 C.ar    1  UNL1       -0.0026
     21 C          62.0057   84.7493   10.8474 C.ar    1  UNL1       -0.0003
     22 C          62.4811   83.6714   11.7759 C.ar    1  UNL1       -0.0000
     23 C          63.2418   84.0325   13.0173 C.ar    1  UNL1       -0.0003
     24 C          63.5271   85.4715   13.3301 C.ar    1  UNL1       -0.0026
     25 C          59.1652   89.0006    7.2007 C.3     1  UNL1        0.1003
     26 C          56.6817   90.1488    5.9703 C.3     1  UNL1        0.0519
     27 C          58.0309   90.6258    5.5208 C.ar    1  UNL1        0.0598
     28 N          58.1384   91.6770    4.4561 N.ar    1  UNL1       -0.2160
     29 C          59.4876   92.1540    4.0067 C.ar    1  UNL1        0.2293
     30 C          60.7293   91.5800    4.6219 C.ar    1  UNL1        0.0578
     31 C          60.6218   90.5288    5.6865 C.ar    1  UNL1        0.0031
     32 C          59.2726   90.0518    6.1360 C.ar    1  UNL1        0.0077
     33 O          59.5950   93.2052    2.9419 O.3     1  UNL1       -0.4361
     34 C          60.9134   93.4658    2.2757 C.ar    1  UNL1        0.1472
     35 C          61.2479   94.8445    1.7883 C.ar    1  UNL1        0.0377
     36 C          62.5663   95.1052    1.1221 C.ar    1  UNL1        0.0076
     37 C          63.5503   93.9871    0.9432 C.ar    1  UNL1        0.0533
     38 C          63.2158   92.6085    1.4306 C.ar    1  UNL1        0.0076
     39 C          61.8974   92.3479    2.0968 C.ar    1  UNL1        0.0377
     40 C          64.8687   94.2478    0.2770 C.2     1  UNL1        0.2427
     41 N          66.0216   93.3158    0.5054 N.am    1  UNL1       -0.3253
     42 O          65.0341   95.4403   -0.6176 O.2     1  UNL1       -0.2704
     43 H          65.9130   92.5330    1.0925 H       1  UNL1        0.1453
     44 H          66.8870   93.4868    0.0681 H       1  UNL1        0.1453
@<TRIPOS>BOND
     1    26    27    1
     2    27    28   ar
     3    28    29   ar
     4    29    33    1
     5    33    34    1
     6    34    35   ar
     7    35    36   ar
     8    36    37   ar
     9    37    40    1
    10    40    41   am
    11    40    42    2
    12    37    38   ar
    13    38    39   ar
    14    29    30   ar
    15    30    31   ar
    16    31    32   ar
    17    32    25    1
    18    25     1    1
    19     1     2    1
    20     2     3    1
    21     3     4    1
    22     4     7    1
    23     7     8   am
    24     8     9    2
    25     8    10   am
    26    10    13    1
    27    13    14    1
    28    14    15    1
    29    15    16    1
    30    16    17    1
    31    17    18    1
    32    10    11    1
    33    11    12    1
    34    12    19    1
    35    19    20   ar
    36    20    21   ar
    37    21    22   ar
    38    22    23   ar
    39    23    24   ar
    40     4     5    1
    41     5     6    1
    42    32    27   ar
    43     6     1    1
    44    39    34   ar
    45    12     7    1
    46    24    19   ar
    47    18    13    1
    48    41    43    1
    49    41    44    1
@<TRIPOS>MOLECULE
*****
 44 49 0 0 0
SMALL
GASTEIGER

@<TRIPOS>ATOM
      1 N          59.2439   88.4110    7.6594 N.3     1  UNL1       -0.2688
      2 C          59.8517   87.0433    7.5597 C.3     1  UNL1        0.0741
      3 C          60.7581   86.5444    8.6457 C.3     1  UNL1        0.0372
      4 C          61.0567   87.4132    9.8315 C.3     1  UNL1        0.0799
      5 C          60.4489   88.7809    9.9312 C.3     1  UNL1        0.0372
      6 C          59.5425   89.2798    8.8452 C.3     1  UNL1        0.0741
      7 N          61.9631   86.9143   10.9176 N.am    1  UNL1       -0.2618
      8 C          62.0657   85.4973   11.3988 C.2     1  UNL1        0.3074
      9 O          61.2799   84.3304   10.8784 O.2     1  UNL1       -0.2523
     10 N          63.0921   85.4520   12.4917 N.am    1  UNL1       -0.2635
     11 C          63.6239   86.8410   12.6860 C.3     1  UNL1        0.1192
     12 C          62.9261   87.7447   11.7132 C.3     1  UNL1        0.1191
     13 C          63.5128   84.2319   13.2561 C.3     1  UNL1        0.0819
     14 C          63.6770   84.2997   14.7456 C.3     1  UNL1        0.0520
     15 C          64.0977   83.0796   15.5100 C.3     1  UNL1        0.1439
     16 O          64.3541   81.7917   14.7850 O.3     1  UNL1       -0.3537
     17 C          64.1899   81.7240   13.2956 C.3     1  UNL1        0.1439
     18 C          63.7692   82.9441   12.5312 C.3     1  UNL1        0.0520
     19 C          63.1518   89.2200   11.5624 C.ar    1  UNL1       -0.0026
     20 C          62.9896   89.8702   10.2203 C.ar    1  UNL1       -0.0026
     21 C          63.2153   91.3455   10.0695 C.ar    1  UNL1       -0.0003
     22 C          63.6032   92.1705   11.2607 C.ar    1  UNL1       -0.0000
     23 C          63.7654   91.5203   12.6026 C.ar    1  UNL1       -0.0003
     24 C          63.5397   90.0451   12.7534 C.ar    1  UNL1       -0.0026
     25 C          58.3375   88.9100    6.5734 C.3     1  UNL1        0.1003
     26 C          56.1964   90.6661    5.4193 C.3     1  UNL1        0.0519
     27 C          57.6415   91.0083    5.2085 C.ar    1  UNL1        0.0598
     28 N          58.0161   92.2285    4.4207 N.ar    1  UNL1       -0.2160
     29 C          59.4613   92.5707    4.2098 C.ar    1  UNL1        0.2293
     30 C          60.5318   91.6927    4.7868 C.ar    1  UNL1        0.0578
     31 C          60.1572   90.4725    5.5747 C.ar    1  UNL1        0.0031
     32 C          58.7121   90.1303    5.7855 C.ar    1  UNL1        0.0077
     33 O          59.8358   93.7910    3.4220 O.3     1  UNL1       -0.4361
     34 C          61.0447   93.7686    2.5342 C.ar    1  UNL1        0.1472
     35 C          61.9526   92.5745    2.5333 C.ar    1  UNL1        0.0377
     36 C          63.1615   92.5522    1.6456 C.ar    1  UNL1        0.0076
     37 C          63.4625   93.7240    0.7588 C.ar    1  UNL1        0.0533
     38 C          62.5547   94.9180    0.7597 C.ar    1  UNL1        0.0076
     39 C          61.3458   94.9403    1.6474 C.ar    1  UNL1        0.0377
     40 C          64.6714   93.7017   -0.1289 C.2     1  UNL1        0.2427
     41 N          66.0123   93.3414    0.4389 N.am    1  UNL1       -0.3253
     42 O          64.5395   94.0396   -1.5844 O.2     1  UNL1       -0.2704
     43 H          66.0989   93.1197    1.3941 H       1  UNL1        0.1453
     44 H          66.8058   93.3268   -0.1438 H       1  UNL1        0.1453
@<TRIPOS>BOND
     1    26    27    1
     2    27    28   ar
     3    28    29   ar
     4    29    33    1
     5    33    34    1
     6    34    35   ar
     7    35    36   ar
     8    36    37   ar
     9    37    40    1
    10    40    41   am
    11    40    42    2
    12    37    38   ar
    13    38    39   ar
    14    29    30   ar
    15    30    31   ar
    16    31    32   ar
    17    32    25    1
    18    25     1    1
    19     1     2    1
    20     2     3    1
    21     3     4    1
    22     4     7    1
    23     7     8   am
    24     8     9    2
    25     8    10   am
    26    10    13    1
    27    13    14    1
    28    14    15    1
    29    15    16    1
    30    16    17    1
    31    17    18    1
    32    10    11    1
    33    11    12    1
    34    12    19    1
    35    19    20   ar
    36    20    21   ar
    37    21    22   ar
    38    22    23   ar
    39    23    24   ar
    40     4     5    1
    41     5     6    1
    42    32    27   ar
    43     6     1    1
    44    39    34   ar
    45    12     7    1
    46    24    19   ar
    47    18    13    1
    48    41    43    1
    49    41    44    1
@<TRIPOS>MOLECULE
*****
 44 49 0 0 0
SMALL
GASTEIGER

@<TRIPOS>ATOM
      1 N          64.0076   88.2331   15.3469 N.3     1  UNL1       -0.2688
      2 C          63.8114   87.8183   13.9188 C.3     1  UNL1        0.0741
      3 C          63.9243   88.8337   12.8206 C.3     1  UNL1        0.0372
      4 C          64.2334   90.2640   13.1505 C.3     1  UNL1        0.0799
      5 C          64.4296   90.6788   14.5786 C.3     1  UNL1        0.0372
      6 C          64.3167   89.6634   15.6768 C.3     1  UNL1        0.0741
      7 N          64.3463   91.2795   12.0523 N.am    1  UNL1       -0.2618
      8 C          65.3717   92.3706   11.9623 C.2     1  UNL1        0.3074
      9 O          66.4642   92.6379   12.9548 O.2     1  UNL1       -0.2523
     10 N          65.1128   93.1476   10.7056 N.am    1  UNL1       -0.2635
     11 C          63.9274   92.5367   10.0189 C.3     1  UNL1        0.1192
     12 C          63.4537   91.3822   10.8512 C.3     1  UNL1        0.1191
     13 C          65.9009   94.3282   10.2209 C.3     1  UNL1        0.0819
     14 C          66.8935   94.1617    9.1086 C.3     1  UNL1        0.0520
     15 C          67.6817   95.3423    8.6239 C.3     1  UNL1        0.1439
     16 O          67.4772   96.6893    9.2512 O.3     1  UNL1       -0.3537
     17 C          66.4845   96.8558   10.3634 C.3     1  UNL1        0.1439
     18 C          65.6964   95.6752   10.8482 C.3     1  UNL1        0.0520
     19 C          62.2914   90.4874   10.5374 C.ar    1  UNL1       -0.0026
     20 C          60.9474   90.7632   11.1439 C.ar    1  UNL1       -0.0026
     21 C          59.7851   89.8684   10.8301 C.ar    1  UNL1       -0.0003
     22 C          59.9668   88.6978    9.9098 C.ar    1  UNL1       -0.0000
     23 C          61.3107   88.4221    9.3034 C.ar    1  UNL1       -0.0003
     24 C          62.4729   89.3168    9.6172 C.ar    1  UNL1       -0.0026
     25 C          63.8947   87.2177   16.4452 C.3     1  UNL1        0.1003
     26 C          61.0570   86.3272   16.8389 C.3     1  UNL1        0.0519
     27 C          62.0812   85.3613   16.3210 C.ar    1  UNL1        0.0598
     28 N          61.6865   83.9503   16.0000 N.ar    1  UNL1       -0.2160
     29 C          62.7107   82.9844   15.4822 C.ar    1  UNL1        0.2293
     30 C          64.1295   83.4295   15.2853 C.ar    1  UNL1        0.0578
     31 C          64.5241   84.8406   15.6063 C.ar    1  UNL1        0.0031
     32 C          63.5000   85.8065   16.1242 C.ar    1  UNL1        0.0077
     33 O          62.3160   81.5732   15.1612 O.3     1  UNL1       -0.4361
     34 C          62.4376   81.0616   13.7564 C.ar    1  UNL1        0.1472
     35 C          62.3482   79.5891   13.4841 C.ar    1  UNL1        0.0377
     36 C          62.4697   79.0774   12.0793 C.ar    1  UNL1        0.0076
     37 C          62.6807   80.0382   10.9468 C.ar    1  UNL1        0.0533
     38 C          62.7701   81.5105   11.2191 C.ar    1  UNL1        0.0076
     39 C          62.6485   82.0222   12.6239 C.ar    1  UNL1        0.0377
     40 C          62.8023   79.5265    9.5420 C.2     1  UNL1        0.2427
     41 N          63.9051   78.5751    9.1832 N.am    1  UNL1       -0.3253
     42 O          61.8211   79.9662    8.4961 O.2     1  UNL1       -0.2704
     43 H          64.5490   78.2865    9.8697 H       1  UNL1        0.1453
     44 H          63.9849   78.2392    8.2612 H       1  UNL1        0.1453
@<TRIPOS>BOND
     1    26    27    1
     2    27    28   ar
     3    28    29   ar
     4    29    33    1
     5    33    34    1
     6    34    35   ar
     7    35    36   ar
     8    36    37   ar
     9    37    40    1
    10    40    41   am
    11    40    42    2
    12    37    38   ar
    13    38    39   ar
    14    29    30   ar
    15    30    31   ar
    16    31    32   ar
    17    32    25    1
    18    25     1    1
    19     1     2    1
    20     2     3    1
    21     3     4    1
    22     4     7    1
    23     7     8   am
    24     8     9    2
    25     8    10   am
    26    10    13    1
    27    13    14    1
    28    14    15    1
    29    15    16    1
    30    16    17    1
    31    17    18    1
    32    10    11    1
    33    11    12    1
    34    12    19    1
    35    19    20   ar
    36    20    21   ar
    37    21    22   ar
    38    22    23   ar
    39    23    24   ar
    40     4     5    1
    41     5     6    1
    42    32    27   ar
    43     6     1    1
    44    39    34   ar
    45    12     7    1
    46    24    19   ar
    47    18    13    1
    48    41    43    1
    49    41    44    1
@<TRIPOS>MOLECULE
*****
 44 49 0 0 0
SMALL
GASTEIGER

@<TRIPOS>ATOM
      1 N          64.5115   89.6412   14.3731 N.3     1  UNL1       -0.2688
      2 C          64.6269   88.2982   15.0313 C.3     1  UNL1        0.0741
      3 C          64.1079   87.0749   14.3355 C.3     1  UNL1        0.0372
      4 C          63.4735   87.1946   12.9815 C.3     1  UNL1        0.0799
      5 C          63.3582   88.5375   12.3233 C.3     1  UNL1        0.0372
      6 C          63.8772   89.7608   13.0192 C.3     1  UNL1        0.0741
      7 N          62.9545   85.9713   12.2856 N.am    1  UNL1       -0.2618
      8 C          63.3531   84.5550   12.5776 C.2     1  UNL1        0.3074
      9 O          64.3406   84.1133   13.6167 O.2     1  UNL1       -0.2523
     10 N          62.5907   83.6579   11.6481 N.am    1  UNL1       -0.2635
     11 C          61.7210   84.5198   10.7816 C.3     1  UNL1        0.1192
     12 C          61.9458   85.9495   11.1757 C.3     1  UNL1        0.1191
     13 C          62.6820   82.1617   11.5945 C.3     1  UNL1        0.0819
     14 C          62.4141   81.3494   12.8267 C.3     1  UNL1        0.0520
     15 C          62.5055   79.8531   12.7731 C.3     1  UNL1        0.1439
     16 O          62.8647   79.1692   11.4873 O.3     1  UNL1       -0.3537
     17 C          63.1326   79.9816   10.2551 C.3     1  UNL1        0.1439
     18 C          63.0413   81.4778   10.3088 C.3     1  UNL1        0.0520
     19 C          61.2790   87.1472   10.5666 C.ar    1  UNL1       -0.0026
     20 C          60.4363   88.0502   11.4178 C.ar    1  UNL1       -0.0026
     21 C          59.7695   89.2479   10.8087 C.ar    1  UNL1       -0.0003
     22 C          59.9454   89.5426    9.3485 C.ar    1  UNL1       -0.0000
     23 C          60.7881   88.6397    8.4974 C.ar    1  UNL1       -0.0003
     24 C          61.4549   87.4420    9.1064 C.ar    1  UNL1       -0.0026
     25 C          65.0306   90.8645   15.0690 C.3     1  UNL1        0.1003
     26 C          66.9919   92.7688   16.3047 C.3     1  UNL1        0.0519
     27 C          66.5499   92.9640   14.8847 C.ar    1  UNL1        0.0598
     28 N          67.0885   94.1113   14.0825 N.ar    1  UNL1       -0.2160
     29 C          66.6465   94.3065   12.6625 C.ar    1  UNL1        0.2293
     30 C          65.6659   93.3544   12.0446 C.ar    1  UNL1        0.0578
     31 C          65.1273   92.2071   12.8467 C.ar    1  UNL1        0.0031
     32 C          65.5692   92.0119   14.2668 C.ar    1  UNL1        0.0077
     33 O          67.1852   95.4539   11.8603 O.3     1  UNL1       -0.4361
     34 C          66.7612   95.6356   10.4330 C.ar    1  UNL1        0.1472
     35 C          67.4164   94.8333    9.3480 C.ar    1  UNL1        0.0377
     36 C          66.9924   95.0149    7.9207 C.ar    1  UNL1        0.0076
     37 C          65.9132   95.9989    7.5784 C.ar    1  UNL1        0.0533
     38 C          65.2580   96.8012    8.6633 C.ar    1  UNL1        0.0076
     39 C          65.6821   96.6195   10.0906 C.ar    1  UNL1        0.0377
     40 C          65.4892   96.1806    6.1511 C.2     1  UNL1        0.2427
     41 N          66.3676   95.6884    5.0392 N.am    1  UNL1       -0.3253
     42 O          64.1868   96.8545    5.8355 O.2     1  UNL1       -0.2704
     43 H          67.2224   95.2461    5.2463 H       1  UNL1        0.1453
     44 H          66.0894   95.8076    4.1024 H       1  UNL1        0.1453
@<TRIPOS>BOND
     1    26    27    1
     2    27    28   ar
     3    28    29   ar
     4    29    33    1
     5    33    34    1
     6    34    35   ar
     7    35    36   ar
     8    36    37   ar
     9    37    40    1
    10    40    41   am
    11    40    42    2
    12    37    38   ar
    13    38    39   ar
    14    29    30   ar
    15    30    31   ar
    16    31    32   ar
    17    32    25    1
    18    25     1    1
    19     1     2    1
    20     2     3    1
    21     3     4    1
    22     4     7    1
    23     7     8   am
    24     8     9    2
    25     8    10   am
    26    10    13    1
    27    13    14    1
    28    14    15    1
    29    15    16    1
    30    16    17    1
    31    17    18    1
    32    10    11    1
    33    11    12    1
    34    12    19    1
    35    19    20   ar
    36    20    21   ar
    37    21    22   ar
    38    22    23   ar
    39    23    24   ar
    40     4     5    1
    41     5     6    1
    42    32    27   ar
    43     6     1    1
    44    39    34   ar
    45    12     7    1
    46    24    19   ar
    47    18    13    1
    48    41    43    1
    49    41    44    1
@<TRIPOS>MOLECULE
*****
 44 49 0 0 0
SMALL
GASTEIGER

@<TRIPOS>ATOM
      1 N          61.0735   88.2174   10.8115 N.3     1  UNL1       -0.2688
      2 C          62.2627   87.3744   11.1654 C.3     1  UNL1        0.0741
      3 C          63.2809   87.8858   12.1409 C.3     1  UNL1        0.0372
      4 C          63.1099   89.2403   12.7625 C.3     1  UNL1        0.0799
      5 C          61.9208   90.0832   12.4087 C.3     1  UNL1        0.0372
      6 C          60.9025   89.5718   11.4332 C.3     1  UNL1        0.0741
      7 N          64.1282   89.7517   13.7381 N.am    1  UNL1       -0.2618
      8 C          64.9609   90.9887   13.5761 C.2     1  UNL1        0.3074
      9 O          64.9217   91.9315   12.4101 O.2     1  UNL1       -0.2523
     10 N          65.8399   91.1174   14.7848 N.am    1  UNL1       -0.2635
     11 C          65.5503   89.9599   15.6938 C.3     1  UNL1        0.1192
     12 C          64.4924   89.1159   15.0469 C.3     1  UNL1        0.1191
     13 C          66.8338   92.2115   15.0396 C.3     1  UNL1        0.0819
     14 C          66.5824   93.5917   14.5087 C.3     1  UNL1        0.0520
     15 C          67.5763   94.6859   14.7636 C.3     1  UNL1        0.1439
     16 O          68.8217   94.3998   15.5493 O.3     1  UNL1       -0.3537
     17 C          69.0730   93.0196   16.0801 C.3     1  UNL1        0.1439
     18 C          68.0791   91.9254   15.8253 C.3     1  UNL1        0.0520
     19 C          63.9024   87.8570   15.6100 C.ar    1  UNL1       -0.0026
     20 C          62.9912   87.9226   16.7998 C.ar    1  UNL1       -0.0026
     21 C          62.4012   86.6637   17.3629 C.ar    1  UNL1       -0.0003
     22 C          62.7223   85.3392   16.7363 C.ar    1  UNL1       -0.0000
     23 C          63.6335   85.2737   15.5466 C.ar    1  UNL1       -0.0003
     24 C          64.2235   86.5324   14.9835 C.ar    1  UNL1       -0.0026
     25 C          60.0552   87.7060    9.8360 C.3     1  UNL1        0.1003
     26 C          58.9447   86.2910    7.4350 C.3     1  UNL1        0.0519
     27 C          59.2142   87.7655    7.3785 C.ar    1  UNL1        0.0598
     28 N          58.9285   88.5326    6.1215 N.ar    1  UNL1       -0.2160
     29 C          59.1980   90.0071    6.0650 C.ar    1  UNL1        0.2293
     30 C          59.7532   90.7146    7.2654 C.ar    1  UNL1        0.0578
     31 C          60.0390   89.9475    8.5224 C.ar    1  UNL1        0.0031
     32 C          59.7695   88.4730    8.5789 C.ar    1  UNL1        0.0077
     33 O          58.9122   90.7741    4.8079 O.3     1  UNL1       -0.4361
     34 C          60.0320   91.4409    4.0653 C.ar    1  UNL1        0.1472
     35 C          59.7510   92.6284    3.1929 C.ar    1  UNL1        0.0377
     36 C          60.8707   93.2952    2.4503 C.ar    1  UNL1        0.0076
     37 C          62.2715   92.7744    2.5800 C.ar    1  UNL1        0.0533
     38 C          62.5525   91.5870    3.4523 C.ar    1  UNL1        0.0076
     39 C          61.4327   90.9202    4.1950 C.ar    1  UNL1        0.0377
     40 C          63.3913   93.4412    1.8373 C.2     1  UNL1        0.2427
     41 N          64.7226   92.7604    1.7186 N.am    1  UNL1       -0.3253
     42 O          63.1797   94.7887    1.2134 O.2     1  UNL1       -0.2704
     43 H          64.8615   91.8759    2.1281 H       1  UNL1        0.1453
     44 H          65.4576   93.1980    1.2312 H       1  UNL1        0.1453
@<TRIPOS>BOND
     1    26    27    1
     2    27    28   ar
     3    28    29   ar
     4    29    33    1
     5    33    34    1
     6    34    35   ar
     7    35    36   ar
     8    36    37   ar
     9    37    40    1
    10    40    41   am
    11    40    42    2
    12    37    38   ar
    13    38    39   ar
    14    29    30   ar
    15    30    31   ar
    16    31    32   ar
    17    32    25    1
    18    25     1    1
    19     1     2    1
    20     2     3    1
    21     3     4    1
    22     4     7    1
    23     7     8   am
    24     8     9    2
    25     8    10   am
    26    10    13    1
    27    13    14    1
    28    14    15    1
    29    15    16    1
    30    16    17    1
    31    17    18    1
    32    10    11    1
    33    11    12    1
    34    12    19    1
    35    19    20   ar
    36    20    21   ar
    37    21    22   ar
    38    22    23   ar
    39    23    24   ar
    40     4     5    1
    41     5     6    1
    42    32    27   ar
    43     6     1    1
    44    39    34   ar
    45    12     7    1
    46    24    19   ar
    47    18    13    1
    48    41    43    1
    49    41    44    1
