@<TRIPOS>MOLECULE
*****
 41 46 0 0 0
SMALL
GASTEIGER

@<TRIPOS>ATOM
      1 N          61.4984   87.2720   10.0341 N.am    1  UNL1       -0.2684
      2 C          61.8188   86.1650   10.9942 C.3     1  UNL1        0.1205
      3 C          62.6123   86.0576   12.2627 C.ar    1  UNL1        0.0005
      4 C          62.4889   84.6213   12.6773 C.ar    1  UNL1        0.0205
      5 C          63.1673   84.1402   13.9256 C.ar    1  UNL1        0.1524
      6 N          63.9690   85.0953   14.7593 N.ar    1  UNL1       -0.2399
      7 C          64.0924   86.5315   14.3446 C.ar    1  UNL1        0.0983
      8 C          63.4141   87.0127   13.0963 C.ar    1  UNL1        0.0188
      9 C          63.7544   88.4708   13.0069 C.2     1  UNL1        0.0527
     10 C          64.6090   88.7445   14.2089 C.2     1  UNL1        0.1911
     11 N          65.1431   90.1251   14.4508 N.2     1  UNL1       -0.0723
     12 C          64.8227   91.2321   13.4906 C.cat   1  UNL1        0.3804
     13 N          63.9682   90.9585   12.2886 N.pl3   1  UNL1       -0.1554
     14 C          63.5070   91.8729   11.1926 C.2     1  UNL1        0.2413
     15 N          62.6703   91.0705   10.2408 N.2     1  UNL1       -0.2277
     16 C          62.6405   89.6853   10.7783 C.3     1  UNL1        0.2204
     17 C          61.8388   88.7302    9.9446 C.2     1  UNL1        0.2521
     18 O          61.2360   89.3874    8.7386 O.2     1  UNL1       -0.2726
     19 C          63.4340   89.5779   12.0468 C.3     1  UNL1        0.1964
     20 C          63.0439   82.7039   14.3404 C.3     1  UNL1        0.4348
     21 F          62.9204   81.2677   14.7550 F       1  UNL1       -0.1644
     22 F          62.0347   82.4770   13.2541 F       1  UNL1       -0.1644
     23 F          64.0530   82.9308   15.4266 F       1  UNL1       -0.1644
     24 N          65.3568   92.6128   13.7326 N.pl3   1  UNL1       -0.2203
     25 H          64.7788   93.3007   14.1348 H       1  UNL1        0.2456
     26 C          66.7717   92.9452   13.3617 C.3     1  UNL1        0.1927
     27 C          67.1578   93.0755   11.9181 C.ar    1  UNL1        0.0412
     28 C          68.0867   92.0748   11.2969 C.ar    1  UNL1        0.1391
     29 F          68.6296   90.9439   12.1195 F       1  UNL1       -0.2044
     30 C          68.4729   92.2050    9.8534 C.ar    1  UNL1        0.0325
     31 C          67.9301   93.3359    9.0309 C.ar    1  UNL1        0.0389
     32 C          67.0011   94.3366    9.6521 C.ar    1  UNL1        0.1346
     33 C          66.6150   94.2063   11.0956 C.ar    1  UNL1        0.0168
     34 C          65.6876   95.3365   11.4311 C.3     1  UNL1        0.0766
     35 C          65.5005   96.1652   10.1950 C.3     1  UNL1        0.2101
     36 O          66.3123   95.5472    9.0954 O.3     1  UNL1       -0.4754
     37 C          60.6351   86.8132    8.8965 C.3     1  UNL1        0.1603
     38 C          61.7248   84.8920    6.8664 C.3     1  UNL1        0.0740
     39 C          61.1800   85.8526    7.8814 C.3     1  UNL1        0.2820
     40 F          59.7828   85.4988    7.4663 F       1  UNL1       -0.2025
     41 F          62.5773   86.2065    8.2966 F       1  UNL1       -0.2025
@<TRIPOS>BOND
     1    38    39    1
     2    39    40    1
     3    39    41    1
     4    39    37    1
     5    37     1    1
     6     1     2    1
     7     2     3    1
     8     3     4   ar
     9     4     5   ar
    10     5    20    1
    11    20    21    1
    12    20    22    1
    13    20    23    1
    14     5     6   ar
    15     6     7   ar
    16     7     8   ar
    17     8     9    1
    18     9    10    2
    19    10    11    1
    20    11    12    2
    21    12    24    1
    22    24    26    1
    23    26    27    1
    24    27    28   ar
    25    28    29    1
    26    28    30   ar
    27    30    31   ar
    28    31    32   ar
    29    32    33   ar
    30    33    34    1
    31    34    35    1
    32    35    36    1
    33    12    13    1
    34    13    14    1
    35    14    15    2
    36    15    16    1
    37    16    17    1
    38    17    18    2
    39    16    19    1
    40    17     1   am
    41     8     3   ar
    42    19     9    1
    43    33    27   ar
    44    19    13    1
    45    36    32    1
    46    24    25    1
@<TRIPOS>MOLECULE
*****
 41 46 0 0 0
SMALL
GASTEIGER

@<TRIPOS>ATOM
      1 N          61.6284   86.7175    9.8226 N.am    1  UNL1       -0.2684
      2 C          61.9419   85.4220   10.5107 C.3     1  UNL1        0.1205
      3 C          62.5989   85.0397   11.8039 C.ar    1  UNL1        0.0005
      4 C          62.5625   83.5404   11.8295 C.ar    1  UNL1        0.0205
      5 C          63.1418   82.7960   12.9958 C.ar    1  UNL1        0.1524
      6 N          63.7575   83.5508   14.1364 N.ar    1  UNL1       -0.2399
      7 C          63.7938   85.0501   14.1109 C.ar    1  UNL1        0.0983
      8 C          63.2146   85.7946   12.9446 C.ar    1  UNL1        0.0188
      9 C          63.4283   87.2444   13.2646 C.2     1  UNL1        0.0527
     10 C          64.1182   87.2504   14.5965 C.2     1  UNL1        0.1911
     11 N          64.4946   88.5519   15.2403 N.2     1  UNL1       -0.0723
     12 C          64.1812   89.8473   14.5522 C.cat   1  UNL1        0.3804
     13 N          63.4913   89.8413   13.2203 N.pl3   1  UNL1       -0.1554
     14 C          63.0709   90.9776   12.3358 C.2     1  UNL1        0.2413
     15 N          62.4196   90.3983   11.1151 N.2     1  UNL1       -0.2277
     16 C          62.4578   88.9222   11.2833 C.3     1  UNL1        0.2204
     17 C          61.8422   88.1673   10.1426 C.2     1  UNL1        0.2521
     18 O          61.3170   89.0753    9.0704 O.2     1  UNL1       -0.2726
     19 C          63.1148   88.5399   12.5765 C.3     1  UNL1        0.1964
     20 C          63.1054   81.2966   13.0214 C.3     1  UNL1        0.4348
     21 F          63.0690   79.7973   13.0470 F       1  UNL1       -0.1644
     22 F          61.6182   81.3360   13.2128 F       1  UNL1       -0.1644
     23 F          64.5926   81.2572   12.8300 F       1  UNL1       -0.1644
     24 N          64.5577   91.1488   15.1960 N.pl3   1  UNL1       -0.2203
     25 H          64.3899   91.2899   16.1558 H       1  UNL1        0.2456
     26 C          65.1898   92.2353   14.3775 C.3     1  UNL1        0.1927
     27 C          66.6591   92.1907   14.0786 C.ar    1  UNL1        0.0412
     28 C          67.6517   92.1387   15.2019 C.ar    1  UNL1        0.1391
     29 F          67.1751   92.1312   16.6242 F       1  UNL1       -0.2044
     30 C          69.1209   92.0941   14.9030 C.ar    1  UNL1        0.0325
     31 C          69.5975   92.1016   13.4808 C.ar    1  UNL1        0.0389
     32 C          68.6048   92.1536   12.3574 C.ar    1  UNL1        0.1346
     33 C          67.1356   92.1982   12.6563 C.ar    1  UNL1        0.0168
     34 C          66.3982   92.2446   11.3509 C.3     1  UNL1        0.0766
     35 C          67.4117   92.2288   10.2453 C.3     1  UNL1        0.2101
     36 O          68.7754   92.1725   10.8673 O.3     1  UNL1       -0.4754
     37 C          60.9397   86.5158    8.5055 C.3     1  UNL1        0.1603
     38 C          62.0634   84.5825    6.5056 C.3     1  UNL1        0.0740
     39 C          61.5016   85.5492    7.5056 C.3     1  UNL1        0.2820
     40 F          60.1116   85.1942    7.0677 F       1  UNL1       -0.2025
     41 F          62.8916   85.9041    7.9434 F       1  UNL1       -0.2025
@<TRIPOS>BOND
     1    38    39    1
     2    39    40    1
     3    39    41    1
     4    39    37    1
     5    37     1    1
     6     1     2    1
     7     2     3    1
     8     3     4   ar
     9     4     5   ar
    10     5    20    1
    11    20    21    1
    12    20    22    1
    13    20    23    1
    14     5     6   ar
    15     6     7   ar
    16     7     8   ar
    17     8     9    1
    18     9    10    2
    19    10    11    1
    20    11    12    2
    21    12    24    1
    22    24    26    1
    23    26    27    1
    24    27    28   ar
    25    28    29    1
    26    28    30   ar
    27    30    31   ar
    28    31    32   ar
    29    32    33   ar
    30    33    34    1
    31    34    35    1
    32    35    36    1
    33    12    13    1
    34    13    14    1
    35    14    15    2
    36    15    16    1
    37    16    17    1
    38    17    18    2
    39    16    19    1
    40    17     1   am
    41     8     3   ar
    42    19     9    1
    43    33    27   ar
    44    19    13    1
    45    36    32    1
    46    24    25    1
@<TRIPOS>MOLECULE
*****
 41 46 0 0 0
SMALL
GASTEIGER

@<TRIPOS>ATOM
      1 N          63.1338   85.6247   13.3864 N.am    1  UNL1       -0.2684
      2 C          62.3563   85.6595   12.1041 C.3     1  UNL1        0.1205
      3 C          62.0234   86.7172   11.0938 C.ar    1  UNL1        0.0005
      4 C          61.1967   86.0168   10.0565 C.ar    1  UNL1        0.0205
      5 C          60.6768   86.7775    8.8729 C.ar    1  UNL1        0.1524
      6 N          60.9835   88.2385    8.7266 N.ar    1  UNL1       -0.2399
      7 C          61.8101   88.9388    9.7639 C.ar    1  UNL1        0.0983
      8 C          62.3301   88.1782   10.9475 C.ar    1  UNL1        0.0188
      9 C          63.0968   89.1867   11.7508 C.2     1  UNL1        0.0527
     10 C          62.9736   90.4693   10.9830 C.2     1  UNL1        0.1911
     11 N          63.6280   91.7172   11.4974 N.2     1  UNL1       -0.0723
     12 C          64.4054   91.6824   12.7797 C.cat   1  UNL1        0.3804
     13 N          64.5286   90.3998   13.5476 N.pl3   1  UNL1       -0.1554
     14 C          65.2372   90.0993   14.8351 C.2     1  UNL1        0.2413
     15 N          65.0346   88.6463   15.1475 N.2     1  UNL1       -0.2277
     16 C          64.2072   88.0942   14.0433 C.3     1  UNL1        0.2204
     17 C          63.9005   86.6332   14.1897 C.2     1  UNL1        0.2521
     18 O          64.5014   86.0420   15.4303 O.2     1  UNL1       -0.2726
     19 C          63.8742   89.1519   13.0331 C.3     1  UNL1        0.1964
     20 C          59.8501   86.0771    7.8355 C.3     1  UNL1        0.4348
     21 F          59.0234   85.3768    6.7982 F       1  UNL1       -0.1644
     22 F          58.6218   86.7699    8.3467 F       1  UNL1       -0.1644
     23 F          61.0783   85.3843    7.3243 F       1  UNL1       -0.1644
     24 N          65.0598   92.9303   13.2941 N.pl3   1  UNL1       -0.2203
     25 H          64.5345   93.5858   13.8075 H       1  UNL1        0.2456
     26 C          66.5145   93.1794   13.0263 C.3     1  UNL1        0.1927
     27 C          67.0134   93.2645   11.6142 C.ar    1  UNL1        0.0412
     28 C          67.9508   92.2195   11.0858 C.ar    1  UNL1        0.1391
     29 F          68.3893   91.0894   11.9695 F       1  UNL1       -0.2044
     30 C          68.4497   92.3044    9.6738 C.ar    1  UNL1        0.0325
     31 C          68.0111   93.4344    8.7902 C.ar    1  UNL1        0.0389
     32 C          67.0737   94.4794    9.3186 C.ar    1  UNL1        0.1346
     33 C          66.5748   94.3944   10.7306 C.ar    1  UNL1        0.0168
     34 C          65.6652   95.5625   10.9719 C.3     1  UNL1        0.0766
     35 C          65.6018   96.3693    9.7091 C.3     1  UNL1        0.2101
     36 O          66.4724   95.7000    8.6873 O.3     1  UNL1       -0.4754
     37 C          63.1480   84.2616   14.0122 C.3     1  UNL1        0.1603
     38 C          63.4497   81.8235   12.2905 C.3     1  UNL1        0.0740
     39 C          63.2989   83.0426   13.1514 C.3     1  UNL1        0.2820
     40 F          61.9593   82.5505   13.6133 F       1  UNL1       -0.2025
     41 F          64.6385   83.5345   12.6894 F       1  UNL1       -0.2025
@<TRIPOS>BOND
     1    38    39    1
     2    39    40    1
     3    39    41    1
     4    39    37    1
     5    37     1    1
     6     1     2    1
     7     2     3    1
     8     3     4   ar
     9     4     5   ar
    10     5    20    1
    11    20    21    1
    12    20    22    1
    13    20    23    1
    14     5     6   ar
    15     6     7   ar
    16     7     8   ar
    17     8     9    1
    18     9    10    2
    19    10    11    1
    20    11    12    2
    21    12    24    1
    22    24    26    1
    23    26    27    1
    24    27    28   ar
    25    28    29    1
    26    28    30   ar
    27    30    31   ar
    28    31    32   ar
    29    32    33   ar
    30    33    34    1
    31    34    35    1
    32    35    36    1
    33    12    13    1
    34    13    14    1
    35    14    15    2
    36    15    16    1
    37    16    17    1
    38    17    18    2
    39    16    19    1
    40    17     1   am
    41     8     3   ar
    42    19     9    1
    43    33    27   ar
    44    19    13    1
    45    36    32    1
    46    24    25    1
@<TRIPOS>MOLECULE
*****
 41 46 0 0 0
SMALL
GASTEIGER

@<TRIPOS>ATOM
      1 N          61.3838   86.3760    9.6666 N.am    1  UNL1       -0.2684
      2 C          61.7917   85.1889   10.4878 C.3     1  UNL1        0.1205
      3 C          62.5371   84.9953   11.7751 C.ar    1  UNL1        0.0005
      4 C          62.5673   83.5106   11.9867 C.ar    1  UNL1        0.0205
      5 C          63.2436   82.9392   13.1975 C.ar    1  UNL1        0.1524
      6 N          63.8898   83.8525   14.1967 N.ar    1  UNL1       -0.2399
      7 C          63.8596   85.3372   13.9851 C.ar    1  UNL1        0.0983
      8 C          63.1833   85.9086   12.7743 C.ar    1  UNL1        0.0188
      9 C          63.3517   87.3938   12.9002 C.2     1  UNL1        0.0527
     10 C          64.1152   87.5912   14.1761 C.2     1  UNL1        0.1911
     11 N          64.4708   88.9756   14.6308 N.2     1  UNL1       -0.0723
     12 C          64.0629   90.1627   13.8096 C.cat   1  UNL1        0.3804
     13 N          63.2994   89.9653   12.5336 N.pl3   1  UNL1       -0.1554
     14 C          62.7805   90.9661   11.5441 C.2     1  UNL1        0.2413
     15 N          62.0866   90.2156   10.4463 N.2     1  UNL1       -0.2277
     16 C          62.1984   88.7745   10.7917 C.3     1  UNL1        0.2204
     17 C          61.5522   87.8612    9.7925 C.2     1  UNL1        0.2521
     18 O          60.9281   88.6085    8.6514 O.2     1  UNL1       -0.2726
     19 C          62.9438   88.5809   12.0790 C.3     1  UNL1        0.1964
     20 C          63.2739   81.4545   13.4091 C.3     1  UNL1        0.4348
     21 F          63.3040   79.9698   13.6207 F       1  UNL1       -0.1644
     22 F          61.8804   81.5050   13.9619 F       1  UNL1       -0.1644
     23 F          64.6674   81.4040   12.8563 F       1  UNL1       -0.1644
     24 N          64.4186   91.5472   14.2643 N.pl3   1  UNL1       -0.2203
     25 H          64.3745   91.7778   15.2204 H       1  UNL1        0.2456
     26 C          64.8412   92.5803   13.2624 C.3     1  UNL1        0.1927
     27 C          66.1163   92.4013   12.4928 C.ar    1  UNL1        0.0412
     28 C          66.0925   92.3945   10.9930 C.ar    1  UNL1        0.1391
     29 F          64.7936   92.5668   10.2628 F       1  UNL1       -0.2044
     30 C          67.3675   92.2154   10.2235 C.ar    1  UNL1        0.0325
     31 C          68.6664   92.0432   10.9537 C.ar    1  UNL1        0.0389
     32 C          68.6902   92.0499   12.4535 C.ar    1  UNL1        0.1346
     33 C          67.4152   92.2290   13.2231 C.ar    1  UNL1        0.0168
     34 C          67.7475   92.1935   14.6853 C.3     1  UNL1        0.0766
     35 C          69.2278   91.9924   14.8196 C.3     1  UNL1        0.2101
     36 O          69.8105   91.9037   13.4402 O.3     1  UNL1       -0.4754
     37 C          60.6307   85.9865    8.4293 C.3     1  UNL1        0.1603
     38 C          62.0427   84.5571    6.2015 C.3     1  UNL1        0.0740
     39 C          61.3367   85.2718    7.3154 C.3     1  UNL1        0.2820
     40 F          62.6582   85.7199    7.8655 F       1  UNL1       -0.2025
     41 F          60.0151   84.8237    6.7652 F       1  UNL1       -0.2025
@<TRIPOS>BOND
     1    38    39    1
     2    39    40    1
     3    39    41    1
     4    39    37    1
     5    37     1    1
     6     1     2    1
     7     2     3    1
     8     3     4   ar
     9     4     5   ar
    10     5    20    1
    11    20    21    1
    12    20    22    1
    13    20    23    1
    14     5     6   ar
    15     6     7   ar
    16     7     8   ar
    17     8     9    1
    18     9    10    2
    19    10    11    1
    20    11    12    2
    21    12    24    1
    22    24    26    1
    23    26    27    1
    24    27    28   ar
    25    28    29    1
    26    28    30   ar
    27    30    31   ar
    28    31    32   ar
    29    32    33   ar
    30    33    34    1
    31    34    35    1
    32    35    36    1
    33    12    13    1
    34    13    14    1
    35    14    15    2
    36    15    16    1
    37    16    17    1
    38    17    18    2
    39    16    19    1
    40    17     1   am
    41     8     3   ar
    42    19     9    1
    43    33    27   ar
    44    19    13    1
    45    36    32    1
    46    24    25    1
@<TRIPOS>MOLECULE
*****
 41 46 0 0 0
SMALL
GASTEIGER

@<TRIPOS>ATOM
      1 N          63.7832   83.7782   12.6578 N.am    1  UNL1       -0.2684
      2 C          63.2204   83.9508   11.2782 C.3     1  UNL1        0.1205
      3 C          62.7352   85.1169   10.4687 C.ar    1  UNL1        0.0005
      4 C          62.3096   84.5282    9.1564 C.ar    1  UNL1        0.0205
      5 C          61.7605   85.4159    8.0792 C.ar    1  UNL1        0.1524
      6 N          61.6372   86.8922    8.3142 N.ar    1  UNL1       -0.2399
      7 C          62.0629   87.4809    9.6265 C.ar    1  UNL1        0.0983
      8 C          62.6119   86.5932   10.7038 C.ar    1  UNL1        0.0188
      9 C          62.9226   87.5151   11.8456 C.2     1  UNL1        0.0527
     10 C          62.5344   88.8799   11.3593 C.2     1  UNL1        0.1911
     11 N          62.7090   90.0721   12.2527 N.2     1  UNL1       -0.0723
     12 C          63.2718   89.8995   13.6323 C.cat   1  UNL1        0.3804
     13 N          63.6600   88.5346   14.1186 N.pl3   1  UNL1       -0.1554
     14 C          64.2358   88.0958   15.4324 C.2     1  UNL1        0.2413
     15 N          64.4315   86.6096   15.3795 N.2     1  UNL1       -0.2277
     16 C          63.9706   86.1764   14.0347 C.3     1  UNL1        0.2204
     17 C          64.0939   84.7001   13.7996 C.2     1  UNL1        0.2521
     18 O          64.6610   83.9757   14.9843 O.2     1  UNL1       -0.2726
     19 C          63.4854   87.3425   13.2253 C.3     1  UNL1        0.1964
     20 C          61.3348   84.8272    6.7668 C.3     1  UNL1        0.4348
     21 F          60.9091   84.2386    5.4544 F       1  UNL1       -0.1644
     22 F          62.7600   84.4705    6.4645 F       1  UNL1       -0.1644
     23 F          59.9096   85.1839    7.0690 F       1  UNL1       -0.1644
     24 N          63.4463   91.0917   14.5257 N.pl3   1  UNL1       -0.2203
     25 H          62.9773   91.1318   15.3904 H       1  UNL1        0.2456
     26 C          64.3355   92.2229   14.1017 C.3     1  UNL1        0.1927
     27 C          65.7784   92.2369   14.5117 C.ar    1  UNL1        0.0412
     28 C          66.1463   92.4114   15.9554 C.ar    1  UNL1        0.1391
     29 F          65.0712   92.5719   16.9891 F       1  UNL1       -0.2044
     30 C          67.5890   92.4254   16.3653 C.ar    1  UNL1        0.0325
     31 C          68.6640   92.2649   15.3316 C.ar    1  UNL1        0.0389
     32 C          68.2962   92.0904   13.8879 C.ar    1  UNL1        0.1346
     33 C          66.8534   92.0764   13.4779 C.ar    1  UNL1        0.0168
     34 C          66.7959   91.8881   11.9909 C.3     1  UNL1        0.0766
     35 C          68.2030   91.7857   11.4819 C.3     1  UNL1        0.2101
     36 O          69.1303   91.9108   12.6542 O.3     1  UNL1       -0.4754
     37 C          64.1125   82.3482   12.9686 C.3     1  UNL1        0.1603
     38 C          61.9072   80.3639   13.4148 C.3     1  UNL1        0.0740
     39 C          63.0099   81.3561   13.1917 C.3     1  UNL1        0.2820
     40 F          62.7672   81.9322   14.5551 F       1  UNL1       -0.2025
     41 F          63.2525   80.7798   11.8282 F       1  UNL1       -0.2025
@<TRIPOS>BOND
     1    38    39    1
     2    39    40    1
     3    39    41    1
     4    39    37    1
     5    37     1    1
     6     1     2    1
     7     2     3    1
     8     3     4   ar
     9     4     5   ar
    10     5    20    1
    11    20    21    1
    12    20    22    1
    13    20    23    1
    14     5     6   ar
    15     6     7   ar
    16     7     8   ar
    17     8     9    1
    18     9    10    2
    19    10    11    1
    20    11    12    2
    21    12    24    1
    22    24    26    1
    23    26    27    1
    24    27    28   ar
    25    28    29    1
    26    28    30   ar
    27    30    31   ar
    28    31    32   ar
    29    32    33   ar
    30    33    34    1
    31    34    35    1
    32    35    36    1
    33    12    13    1
    34    13    14    1
    35    14    15    2
    36    15    16    1
    37    16    17    1
    38    17    18    2
    39    16    19    1
    40    17     1   am
    41     8     3   ar
    42    19     9    1
    43    33    27   ar
    44    19    13    1
    45    36    32    1
    46    24    25    1
@<TRIPOS>MOLECULE
*****
 41 46 0 0 0
SMALL
GASTEIGER

@<TRIPOS>ATOM
      1 N          63.7783   83.7298   12.6580 N.am    1  UNL1       -0.2684
      2 C          63.2203   83.9073   11.2770 C.3     1  UNL1        0.1205
      3 C          62.7492   85.0777   10.4656 C.ar    1  UNL1        0.0005
      4 C          62.3201   84.4925    9.1529 C.ar    1  UNL1        0.0205
      5 C          61.7828   85.3850    8.0737 C.ar    1  UNL1        0.1524
      6 N          61.6745   86.8627    8.3074 N.ar    1  UNL1       -0.2399
      7 C          62.1036   87.4480    9.6201 C.ar    1  UNL1        0.0983
      8 C          62.6409   86.5554   10.6993 C.ar    1  UNL1        0.0188
      9 C          62.9589   87.4749   11.8410 C.2     1  UNL1        0.0527
     10 C          62.5862   88.8434   11.3528 C.2     1  UNL1        0.1911
     11 N          62.7714   90.0344   12.2456 N.2     1  UNL1       -0.0723
     12 C          63.3294   89.8569   13.6266 C.cat   1  UNL1        0.3804
     13 N          63.7021   88.4885   14.1148 N.pl3   1  UNL1       -0.1554
     14 C          64.2705   88.0447   15.4301 C.2     1  UNL1        0.2413
     15 N          64.4507   86.5565   15.3788 N.2     1  UNL1       -0.2277
     16 C          63.9881   86.1271   14.0334 C.3     1  UNL1        0.2204
     17 C          64.0963   84.6493   13.7998 C.2     1  UNL1        0.2521
     18 O          64.6533   83.9199   14.9862 O.2     1  UNL1       -0.2726
     19 C          63.5169   87.2975   13.2220 C.3     1  UNL1        0.1964
     20 C          61.3537   84.7998    6.7609 C.3     1  UNL1        0.4348
     21 F          60.9245   84.2146    5.4481 F       1  UNL1       -0.1644
     22 F          59.9231   85.1055    7.0923 F       1  UNL1       -0.1644
     23 F          62.7843   84.4941    6.4295 F       1  UNL1       -0.1644
     24 N          63.5146   91.0480   14.5194 N.pl3   1  UNL1       -0.2203
     25 H          63.1951   91.0199   15.4502 H       1  UNL1        0.2456
     26 C          64.1865   92.2819   13.9940 C.3     1  UNL1        0.1927
     27 C          65.5970   92.2103   13.4885 C.ar    1  UNL1        0.0412
     28 C          65.8609   92.0847   12.0173 C.ar    1  UNL1        0.1391
     29 F          64.7143   92.0306   11.0516 F       1  UNL1       -0.2044
     30 C          67.2713   92.0131   11.5117 C.ar    1  UNL1        0.0325
     31 C          68.4178   92.0672   12.4774 C.ar    1  UNL1        0.0389
     32 C          68.1539   92.1928   13.9486 C.ar    1  UNL1        0.1346
     33 C          66.7435   92.2644   14.4542 C.ar    1  UNL1        0.0168
     34 C          66.7923   92.3852   15.9485 C.3     1  UNL1        0.0766
     35 C          68.2328   92.3883   16.3665 C.3     1  UNL1        0.2101
     36 O          69.0743   92.2694   15.1305 O.3     1  UNL1       -0.4754
     37 C          64.0919   82.2967   12.9707 C.3     1  UNL1        0.1603
     38 C          61.8649   80.3373   13.4190 C.3     1  UNL1        0.0740
     39 C          62.9784   81.3170   13.1948 C.3     1  UNL1        0.2820
     40 F          63.2091   80.7423   11.8287 F       1  UNL1       -0.2025
     41 F          62.7477   81.8918   14.5610 F       1  UNL1       -0.2025
@<TRIPOS>BOND
     1    38    39    1
     2    39    40    1
     3    39    41    1
     4    39    37    1
     5    37     1    1
     6     1     2    1
     7     2     3    1
     8     3     4   ar
     9     4     5   ar
    10     5    20    1
    11    20    21    1
    12    20    22    1
    13    20    23    1
    14     5     6   ar
    15     6     7   ar
    16     7     8   ar
    17     8     9    1
    18     9    10    2
    19    10    11    1
    20    11    12    2
    21    12    24    1
    22    24    26    1
    23    26    27    1
    24    27    28   ar
    25    28    29    1
    26    28    30   ar
    27    30    31   ar
    28    31    32   ar
    29    32    33   ar
    30    33    34    1
    31    34    35    1
    32    35    36    1
    33    12    13    1
    34    13    14    1
    35    14    15    2
    36    15    16    1
    37    16    17    1
    38    17    18    2
    39    16    19    1
    40    17     1   am
    41     8     3   ar
    42    19     9    1
    43    33    27   ar
    44    19    13    1
    45    36    32    1
    46    24    25    1
@<TRIPOS>MOLECULE
*****
 41 46 0 0 0
SMALL
GASTEIGER

@<TRIPOS>ATOM
      1 N          62.8156   84.7600   12.3054 N.am    1  UNL1       -0.2684
      2 C          62.0466   85.3446   11.1578 C.3     1  UNL1        0.1205
      3 C          61.7128   86.7346   10.7033 C.ar    1  UNL1        0.0005
      4 C          60.8984   86.5505    9.4572 C.ar    1  UNL1        0.0205
      5 C          60.3809   87.7473    8.7158 C.ar    1  UNL1        0.1524
      6 N          60.6777   89.1283    9.2205 N.ar    1  UNL1       -0.2399
      7 C          61.4921   89.3125   10.4667 C.ar    1  UNL1        0.0983
      8 C          62.0096   88.1156   11.2081 C.ar    1  UNL1        0.0188
      9 C          62.7632   88.6787   12.3764 C.2     1  UNL1        0.0527
     10 C          62.6358   90.1670   12.2398 C.2     1  UNL1        0.1911
     11 N          63.2773   91.0706   13.2507 N.2     1  UNL1       -0.0723
     12 C          64.0462   90.4859   14.3982 C.cat   1  UNL1        0.3804
     13 N          64.1737   88.9976   14.5349 N.pl3   1  UNL1       -0.1554
     14 C          64.8757   88.1710   15.5712 C.2     1  UNL1        0.2413
     15 N          64.6818   86.7256   15.2206 N.2     1  UNL1       -0.2277
     16 C          63.8660   86.7040   13.9785 C.3     1  UNL1        0.2204
     17 C          63.5692   85.3231   13.4738 C.2     1  UNL1        0.2521
     18 O          64.1661   84.2544   14.3408 O.2     1  UNL1       -0.2726
     19 C          63.5322   88.0940   13.5240 C.3     1  UNL1        0.1964
     20 C          59.5666   87.5632    7.4695 C.3     1  UNL1        0.4348
     21 F          58.7522   87.3791    6.2234 F       1  UNL1       -0.1644
     22 F          59.5897   89.0446    7.2356 F       1  UNL1       -0.1644
     23 F          59.5434   86.0818    7.7035 F       1  UNL1       -0.1644
     24 N          64.6878   91.3896   15.4091 N.pl3   1  UNL1       -0.2203
     25 H          64.5763   91.2101   16.3707 H       1  UNL1        0.2456
     26 C          65.4991   92.5667   14.9549 C.3     1  UNL1        0.1927
     27 C          66.8790   92.3590   14.4048 C.ar    1  UNL1        0.0412
     28 C          68.0387   92.1750   15.3382 C.ar    1  UNL1        0.1391
     29 F          67.8184   92.1986   16.8218 F       1  UNL1       -0.2044
     30 C          69.4186   91.9674   14.7882 C.ar    1  UNL1        0.0325
     31 C          69.6389   91.9438   13.3046 C.ar    1  UNL1        0.0389
     32 C          68.4793   92.1278   12.3712 C.ar    1  UNL1        0.1346
     33 C          67.0993   92.3354   12.9213 C.ar    1  UNL1        0.0168
     34 C          66.1571   92.4877   11.7641 C.3     1  UNL1        0.0766
     35 C          66.9547   92.3741   10.4989 C.3     1  UNL1        0.2101
     36 O          68.3899   92.1517   10.8741 O.3     1  UNL1       -0.4754
     37 C          62.8356   83.2604   12.2782 C.3     1  UNL1        0.1603
     38 C          64.1614   81.8189   10.0057 C.3     1  UNL1        0.0740
     39 C          63.4985   82.5396   11.1419 C.3     1  UNL1        0.2820
     40 F          64.5557   83.6021   11.0848 F       1  UNL1       -0.2025
     41 F          62.4412   81.4771   11.1991 F       1  UNL1       -0.2025
@<TRIPOS>BOND
     1    38    39    1
     2    39    40    1
     3    39    41    1
     4    39    37    1
     5    37     1    1
     6     1     2    1
     7     2     3    1
     8     3     4   ar
     9     4     5   ar
    10     5    20    1
    11    20    21    1
    12    20    22    1
    13    20    23    1
    14     5     6   ar
    15     6     7   ar
    16     7     8   ar
    17     8     9    1
    18     9    10    2
    19    10    11    1
    20    11    12    2
    21    12    24    1
    22    24    26    1
    23    26    27    1
    24    27    28   ar
    25    28    29    1
    26    28    30   ar
    27    30    31   ar
    28    31    32   ar
    29    32    33   ar
    30    33    34    1
    31    34    35    1
    32    35    36    1
    33    12    13    1
    34    13    14    1
    35    14    15    2
    36    15    16    1
    37    16    17    1
    38    17    18    2
    39    16    19    1
    40    17     1   am
    41     8     3   ar
    42    19     9    1
    43    33    27   ar
    44    19    13    1
    45    36    32    1
    46    24    25    1
@<TRIPOS>MOLECULE
*****
 41 46 0 0 0
SMALL
GASTEIGER

@<TRIPOS>ATOM
      1 N          63.6477   85.9281   13.1595 N.am    1  UNL1       -0.2684
      2 C          64.1188   87.2094   13.7811 C.3     1  UNL1        0.1205
      3 C          63.9089   88.6670   13.4954 C.ar    1  UNL1        0.0005
      4 C          64.7007   89.3866   14.5466 C.ar    1  UNL1        0.0205
      5 C          64.7247   90.8862   14.5721 C.ar    1  UNL1        0.1524
      6 N          63.9570   91.6661   13.5463 N.ar    1  UNL1       -0.2399
      7 C          63.1652   90.9465   12.4950 C.ar    1  UNL1        0.0983
      8 C          63.1412   89.4469   12.4695 C.ar    1  UNL1        0.0188
      9 C          62.2653   89.0924   11.3045 C.2     1  UNL1        0.0527
     10 C          61.8359   90.4084   10.7270 C.2     1  UNL1        0.1911
     11 N          60.9356   90.4432    9.5278 N.2     1  UNL1       -0.0723
     12 C          60.4646   89.1619    8.9062 C.cat   1  UNL1        0.3804
     13 N          60.8939   87.8459    9.4837 N.pl3   1  UNL1       -0.1554
     14 C          60.5707   86.4439    9.0594 C.2     1  UNL1        0.2413
     15 N          61.2703   85.5034    9.9953 N.2     1  UNL1       -0.2277
     16 C          62.0041   86.3535   10.9687 C.3     1  UNL1        0.2204
     17 C          62.7718   85.5736   11.9945 C.2     1  UNL1        0.2521
     18 O          62.6304   84.0914   11.8127 O.2     1  UNL1       -0.2726
     19 C          61.7943   87.8111   10.6829 C.3     1  UNL1        0.1964
     20 C          65.5165   91.6059   15.6234 C.3     1  UNL1        0.4348
     21 F          66.3082   92.3255   16.6747 F       1  UNL1       -0.1644
     22 F          64.2605   91.8392   16.4095 F       1  UNL1       -0.1644
     23 F          66.7725   91.3725   14.8373 F       1  UNL1       -0.1644
     24 N          59.5642   89.1968    7.7069 N.pl3   1  UNL1       -0.2203
     25 H          58.5875   89.1531    7.8232 H       1  UNL1        0.2456
     26 C          60.1518   89.2981    6.3306 C.3     1  UNL1        0.1927
     27 C          59.7422   90.4183    5.4208 C.ar    1  UNL1        0.0412
     28 C          58.3208   90.8975    5.4142 C.ar    1  UNL1        0.1391
     29 F          57.3091   90.2567    6.3174 F       1  UNL1       -0.2044
     30 C          57.9112   92.0176    4.5045 C.ar    1  UNL1        0.0325
     31 C          58.9230   92.6584    3.6013 C.ar    1  UNL1        0.0389
     32 C          60.3443   92.1791    3.6079 C.ar    1  UNL1        0.1346
     33 C          60.7540   91.0591    4.5177 C.ar    1  UNL1        0.0168
     34 C          62.2165   90.8017    4.3065 C.3     1  UNL1        0.0766
     35 C          62.7108   91.7626    3.2663 C.3     1  UNL1        0.2101
     36 O          61.5538   92.6139    2.8345 O.3     1  UNL1       -0.4754
     37 C          64.1768   84.7173   13.8693 C.3     1  UNL1        0.1603
     38 C          62.2767   82.6643   14.9532 C.3     1  UNL1        0.0740
     39 C          63.2268   83.6908   14.4113 C.3     1  UNL1        0.2820
     40 F          64.0676   82.5994   13.8183 F       1  UNL1       -0.2025
     41 F          62.3858   84.7822   15.0043 F       1  UNL1       -0.2025
@<TRIPOS>BOND
     1    38    39    1
     2    39    40    1
     3    39    41    1
     4    39    37    1
     5    37     1    1
     6     1     2    1
     7     2     3    1
     8     3     4   ar
     9     4     5   ar
    10     5    20    1
    11    20    21    1
    12    20    22    1
    13    20    23    1
    14     5     6   ar
    15     6     7   ar
    16     7     8   ar
    17     8     9    1
    18     9    10    2
    19    10    11    1
    20    11    12    2
    21    12    24    1
    22    24    26    1
    23    26    27    1
    24    27    28   ar
    25    28    29    1
    26    28    30   ar
    27    30    31   ar
    28    31    32   ar
    29    32    33   ar
    30    33    34    1
    31    34    35    1
    32    35    36    1
    33    12    13    1
    34    13    14    1
    35    14    15    2
    36    15    16    1
    37    16    17    1
    38    17    18    2
    39    16    19    1
    40    17     1   am
    41     8     3   ar
    42    19     9    1
    43    33    27   ar
    44    19    13    1
    45    36    32    1
    46    24    25    1
@<TRIPOS>MOLECULE
*****
 41 46 0 0 0
SMALL
GASTEIGER

@<TRIPOS>ATOM
      1 N          62.9651   86.0964   13.3761 N.am    1  UNL1       -0.2684
      2 C          62.1181   86.1849   12.1412 C.3     1  UNL1        0.1205
      3 C          61.8377   87.2487   11.1214 C.ar    1  UNL1        0.0005
      4 C          60.8790   86.6175   10.1557 C.ar    1  UNL1        0.0205
      5 C          60.3707   87.4021    8.9827 C.ar    1  UNL1        0.1524
      6 N          60.8211   88.8178    8.7753 N.ar    1  UNL1       -0.2399
      7 C          61.7798   89.4489    9.7410 C.ar    1  UNL1        0.0983
      8 C          62.2880   88.6643   10.9141 C.ar    1  UNL1        0.0188
      9 C          63.2054   89.6028   11.6406 C.2     1  UNL1        0.0527
     10 C          63.1720   90.8731   10.8436 C.2     1  UNL1        0.1911
     11 N          63.9855   92.0548   11.2815 N.2     1  UNL1       -0.0723
     12 C          64.8325   91.9662   12.5163 C.cat   1  UNL1        0.3804
     13 N          64.8659   90.6959   13.3133 N.pl3   1  UNL1       -0.1554
     14 C          65.6166   90.3508   14.5653 C.2     1  UNL1        0.2413
     15 N          65.2807   88.9357   14.9320 N.2     1  UNL1       -0.2277
     16 C          64.3329   88.4505   13.8953 C.3     1  UNL1        0.2204
     17 C          63.8825   87.0348   14.1026 C.2     1  UNL1        0.2521
     18 O          64.4926   86.4112   15.3228 O.2     1  UNL1       -0.2726
     19 C          64.0524   89.5142   12.8754 C.3     1  UNL1        0.1964
     20 C          59.4120   86.7710    8.0169 C.3     1  UNL1        0.4348
     21 F          58.4533   86.1399    7.0512 F       1  UNL1       -0.1644
     22 F          58.6340   88.0517    7.9524 F       1  UNL1       -0.1644
     23 F          60.1900   85.4902    8.0815 F       1  UNL1       -0.1644
     24 N          65.6460   93.1480   12.9541 N.pl3   1  UNL1       -0.2203
     25 H          66.2676   93.0638   13.7130 H       1  UNL1        0.2456
     26 C          65.5125   94.4580   12.2358 C.3     1  UNL1        0.1927
     27 C          66.1447   94.6421   10.8880 C.ar    1  UNL1        0.0412
     28 C          65.7992   95.8409   10.0551 C.ar    1  UNL1        0.1391
     29 F          64.8217   96.8554   10.5700 F       1  UNL1       -0.2044
     30 C          66.4313   96.0250    8.7073 C.ar    1  UNL1        0.0325
     31 C          67.4088   95.0105    8.1925 C.ar    1  UNL1        0.0389
     32 C          67.7542   93.8118    9.0254 C.ar    1  UNL1        0.1346
     33 C          67.1222   93.6276   10.3731 C.ar    1  UNL1        0.0168
     34 C          67.6533   92.3553   10.9642 C.3     1  UNL1        0.0766
     35 C          68.6135   91.7533    9.9818 C.3     1  UNL1        0.2101
     36 O          68.6760   92.6534    8.7835 O.3     1  UNL1       -0.4754
     37 C          62.8731   84.7546   14.0402 C.3     1  UNL1        0.1603
     38 C          63.9209   82.3148   12.6439 C.3     1  UNL1        0.0740
     39 C          63.3969   83.5347   13.3420 C.3     1  UNL1        0.2820
     40 F          64.7883   84.0903   13.4152 F       1  UNL1       -0.2025
     41 F          62.0056   82.9790   13.2688 F       1  UNL1       -0.2025
@<TRIPOS>BOND
     1    38    39    1
     2    39    40    1
     3    39    41    1
     4    39    37    1
     5    37     1    1
     6     1     2    1
     7     2     3    1
     8     3     4   ar
     9     4     5   ar
    10     5    20    1
    11    20    21    1
    12    20    22    1
    13    20    23    1
    14     5     6   ar
    15     6     7   ar
    16     7     8   ar
    17     8     9    1
    18     9    10    2
    19    10    11    1
    20    11    12    2
    21    12    24    1
    22    24    26    1
    23    26    27    1
    24    27    28   ar
    25    28    29    1
    26    28    30   ar
    27    30    31   ar
    28    31    32   ar
    29    32    33   ar
    30    33    34    1
    31    34    35    1
    32    35    36    1
    33    12    13    1
    34    13    14    1
    35    14    15    2
    36    15    16    1
    37    16    17    1
    38    17    18    2
    39    16    19    1
    40    17     1   am
    41     8     3   ar
    42    19     9    1
    43    33    27   ar
    44    19    13    1
    45    36    32    1
    46    24    25    1
