@<TRIPOS>MOLECULE
*****
 58 63 0 0 0
SMALL
GASTEIGER

@<TRIPOS>ATOM
      1 N          59.7891   89.3696    7.3945 N.3     1  UNL1       -0.2663
      2 C          59.3766   87.9280    7.4330 C.3     1  UNL1        0.0899
      3 C          59.7240   87.0799    8.6205 C.3     1  UNL1        0.0901
      4 N          60.4839   87.6735    9.7695 N.3     1  UNL1       -0.2621
      5 C          60.8964   89.1152    9.7310 C.3     1  UNL1        0.1510
      6 C          60.5490   89.9633    8.5436 C.3     1  UNL1        0.0980
      7 C          61.6563   89.7088   10.8800 C.2     1  UNL1        0.2386
      8 O          61.0994   89.6259   12.2703 O.2     1  UNL1       -0.2736
      9 N          62.9733   90.3853   10.6387 N.am    1  UNL1       -0.2961
     10 H          63.3388   90.4397    9.7262 H       1  UNL1        0.1497
     11 C          63.7332   90.9788   11.7877 C.3     1  UNL1        0.1939
     12 C          64.7850   92.0177   11.5344 C.3     1  UNL1        0.4154
     13 F          65.8370   93.0567   11.2811 F       1  UNL1       -0.1682
     14 F          65.4393   91.6735   12.8394 F       1  UNL1       -0.1682
     15 F          64.1307   92.3620   10.2293 F       1  UNL1       -0.1682
     16 C          57.9871   89.9193    6.4195 C.3     1  UNL1        0.0238
     17 C          59.4417   90.2177    6.2071 C.3     1  UNL1        0.0969
     18 C          60.8963   90.5161    5.9946 C.3     1  UNL1        0.0238
     19 C          59.0943   91.0657    5.0196 C.ar    1  UNL1        0.1355
     20 C          57.7128   91.4748    4.6021 C.ar    1  UNL1        0.0374
     21 C          57.8321   92.3155    3.3656 C.ar    1  UNL1        0.0403
     22 C          59.2872   92.4261    3.0188 C.ar    1  UNL1        0.1450
     23 O          60.0674   91.6537    4.0410 O.2     1  UNL1       -0.4565
     24 C          59.8615   93.1771    1.8543 C.ar    1  UNL1        0.0376
     25 C          61.2359   93.7706    1.9488 C.ar    1  UNL1        0.0237
     26 C          61.8102   94.5216    0.7843 C.ar    1  UNL1        0.0990
     27 N          61.0101   94.6792   -0.4747 N.ar    1  UNL1       -0.2423
     28 C          59.6357   94.0857   -0.5692 C.ar    1  UNL1        0.0990
     29 C          59.0614   93.3347    0.5954 C.ar    1  UNL1        0.0237
     30 C          60.8313   86.8254   10.9570 C.3     1  UNL1        0.1021
     31 C          62.2241   86.2915   11.1156 C.3     1  UNL1        0.1269
     32 O          62.7069   85.1811   10.2303 O.3     1  UNL1       -0.3830
     33 H          62.0005   84.9268    9.6162 H       1  UNL1        0.2104
     34 C          63.1339   86.8681   12.1595 C.3     1  UNL1        0.0401
     35 C          63.5333   86.0413   13.3457 C.3     1  UNL1        0.0833
     36 C          62.9855   84.6549   13.5123 C.2     1  UNL1        0.2226
     37 O          61.6841   84.4437   14.2278 O.2     1  UNL1       -0.2751
     38 N          63.7389   83.4798   12.9634 N.am    1  UNL1       -0.2999
     39 H          64.5930   83.6185   12.4938 H       1  UNL1        0.1498
     40 C          63.1911   82.0934   13.1300 C.3     1  UNL1        0.1278
     41 C          63.0963   81.1772   11.9462 C.ar    1  UNL1        0.0320
     42 C          63.5493   81.6473   10.5957 C.ar    1  UNL1        0.0004
     43 C          63.4545   80.7311    9.4119 C.ar    1  UNL1       -0.0001
     44 C          62.9067   79.3447    9.5785 C.ar    1  UNL1        0.0031
     45 C          62.4537   78.8745   10.9289 C.ar    1  UNL1        0.0366
     46 C          62.5485   79.7908   12.1128 C.ar    1  UNL1        0.1362
     47 O          62.0955   79.3206   13.4632 O.3     1  UNL1       -0.4730
     48 C          62.1903   80.2368   14.6470 C.3     1  UNL1        0.2364
     49 C          62.7381   81.6232   14.4804 C.3     1  UNL1        0.1762
     50 O          62.8329   82.5395   15.6644 O.3     1  UNL1       -0.3788
     51 H          62.5011   82.0834   16.4535 H       1  UNL1        0.2106
     52 C          64.4805   86.6010   14.3653 C.3     1  UNL1        0.0355
     53 C          64.1100   87.8329   15.1367 C.ar    1  UNL1       -0.0217
     54 C          64.4786   89.1877   14.6086 C.ar    1  UNL1       -0.0043
     55 C          64.1080   90.4196   15.3800 C.ar    1  UNL1       -0.0003
     56 C          63.3689   90.2968   16.6795 C.ar    1  UNL1       -0.0000
     57 C          63.0004   88.9421   17.2076 C.ar    1  UNL1       -0.0003
     58 C          63.3709   87.7102   16.4362 C.ar    1  UNL1       -0.0043
@<TRIPOS>BOND
     1    16    17    1
     2    17    18    1
     3    17    19    1
     4    19    20   ar
     5    20    21   ar
     6    21    22   ar
     7    22    24    1
     8    24    25   ar
     9    25    26   ar
    10    26    27   ar
    11    27    28   ar
    12    28    29   ar
    13    22    23   ar
    14    17     1    1
    15     1     2    1
    16     2     3    1
    17     3     4    1
    18     4    30    1
    19    30    31    1
    20    31    32    1
    21    31    34    1
    22    35    34    1
    23    35    52    1
    24    52    53    1
    25    53    54   ar
    26    54    55   ar
    27    55    56   ar
    28    56    57   ar
    29    57    58   ar
    30    35    36    1
    31    36    37    2
    32    36    38   am
    33    40    38    1
    34    40    41    1
    35    41    42   ar
    36    42    43   ar
    37    43    44   ar
    38    44    45   ar
    39    45    46   ar
    40    46    47    1
    41    47    48    1
    42    48    49    1
    43    49    50    1
    44     4     5    1
    45     5     7    1
    46     7     8    2
    47     7     9   am
    48     9    11    1
    49    11    12    1
    50    12    13    1
    51    12    14    1
    52    12    15    1
    53     5     6    1
    54    23    19   ar
    55     6     1    1
    56    29    24   ar
    57    58    53   ar
    58    49    40    1
    59    46    41   ar
    60    32    33    1
    61    38    39    1
    62    50    51    1
    63     9    10    1
@<TRIPOS>MOLECULE
*****
 58 63 0 0 0
SMALL
GASTEIGER

@<TRIPOS>ATOM
      1 N          60.0075   90.0197    6.0403 N.3     1  UNL1       -0.2663
      2 C          59.7153   88.5815    5.7303 C.3     1  UNL1        0.0899
      3 C          59.5913   87.5844    6.8440 C.3     1  UNL1        0.0901
      4 N          59.7595   88.0255    8.2677 N.3     1  UNL1       -0.2621
      5 C          60.0518   89.4637    8.5778 C.3     1  UNL1        0.1510
      6 C          60.1758   90.4608    7.4641 C.3     1  UNL1        0.0980
      7 C          60.2200   89.9048   10.0016 C.2     1  UNL1        0.2386
      8 O          61.4782   90.6018   10.4271 O.2     1  UNL1       -0.2736
      9 N          59.1300   89.6489   10.9998 N.am    1  UNL1       -0.2961
     10 H          58.3042   89.1914   10.7205 H       1  UNL1        0.1497
     11 C          59.2982   90.0900   12.4236 C.3     1  UNL1        0.1939
     12 C          58.8274   89.2087   13.5423 C.3     1  UNL1        0.4154
     13 F          58.3566   88.3274   14.6612 F       1  UNL1       -0.1682
     14 F          60.1022   89.4732   14.2872 F       1  UNL1       -0.1682
     15 F          57.5526   88.9442   12.7975 F       1  UNL1       -0.1682
     16 C          58.6884   91.3880    5.0981 C.3     1  UNL1        0.0238
     17 C          60.1316   91.0168    4.9265 C.3     1  UNL1        0.0969
     18 C          61.5748   90.6456    4.7549 C.3     1  UNL1        0.0238
     19 C          60.2556   92.0139    3.8128 C.ar    1  UNL1        0.1355
     20 C          59.1245   92.7517    3.1599 C.ar    1  UNL1        0.0374
     21 C          59.7023   93.6420    2.1000 C.ar    1  UNL1        0.0403
     22 C          61.1906   93.4545    2.0979 C.ar    1  UNL1        0.1450
     23 O          61.5326   92.4483    3.1564 O.2     1  UNL1       -0.4565
     24 C          62.1657   94.1510    1.1956 C.ar    1  UNL1        0.0376
     25 C          63.5435   93.5896    1.0043 C.ar    1  UNL1        0.0237
     26 C          64.5186   94.2860    0.1021 C.ar    1  UNL1        0.0990
     27 N          64.1159   95.5439   -0.6089 N.ar    1  UNL1       -0.2423
     28 C          62.7382   96.1053   -0.4177 C.ar    1  UNL1        0.0990
     29 C          61.7630   95.4089    0.4846 C.ar    1  UNL1        0.0237
     30 C          59.6355   87.0284    9.3815 C.3     1  UNL1        0.1021
     31 C          60.8678   86.4753   10.0337 C.3     1  UNL1        0.1269
     32 O          61.7829   85.5710    9.2625 O.3     1  UNL1       -0.3830
     33 H          61.4347   85.4471    8.3657 H       1  UNL1        0.2104
     34 C          61.1850   86.8266   11.4571 C.3     1  UNL1        0.0401
     35 C          62.5538   86.5580   12.0087 C.3     1  UNL1        0.0833
     36 C          63.2608   87.6127   12.8073 C.2     1  UNL1        0.2226
     37 O          64.2666   87.2174   13.8476 O.2     1  UNL1       -0.2751
     38 N          62.9621   89.0626   12.5655 N.am    1  UNL1       -0.2999
     39 H          62.3020   89.3220   11.8828 H       1  UNL1        0.1498
     40 C          63.6692   90.1173   13.3641 C.3     1  UNL1        0.1278
     41 C          64.4170   91.2129   12.6638 C.ar    1  UNL1        0.0320
     42 C          64.4577   91.2538   11.1649 C.ar    1  UNL1        0.0004
     43 C          65.2055   92.3494   10.4646 C.ar    1  UNL1       -0.0001
     44 C          65.9126   93.4041   11.2632 C.ar    1  UNL1        0.0031
     45 C          65.8718   93.3632   12.7621 C.ar    1  UNL1        0.0366
     46 C          65.1240   92.2676   13.4624 C.ar    1  UNL1        0.1362
     47 O          65.0833   92.2267   14.9613 O.3     1  UNL1       -0.4730
     48 C          64.3355   91.1311   15.6616 C.3     1  UNL1        0.2364
     49 C          63.6284   90.0764   14.8630 C.3     1  UNL1        0.1762
     50 O          62.8806   88.9807   15.5633 O.3     1  UNL1       -0.3788
     51 H          62.9540   89.1014   16.5230 H       1  UNL1        0.2106
     52 C          63.2156   85.2347   11.7617 C.3     1  UNL1        0.0355
     53 C          62.8314   84.0393   12.5823 C.ar    1  UNL1       -0.0217
     54 C          62.6603   82.7019   11.9249 C.ar    1  UNL1       -0.0043
     55 C          62.2761   81.5064   12.7455 C.ar    1  UNL1       -0.0003
     56 C          62.0630   81.6484   14.2235 C.ar    1  UNL1       -0.0000
     57 C          62.2341   82.9858   14.8809 C.ar    1  UNL1       -0.0003
     58 C          62.6183   84.1812   14.0603 C.ar    1  UNL1       -0.0043
@<TRIPOS>BOND
     1    16    17    1
     2    17    18    1
     3    17    19    1
     4    19    20   ar
     5    20    21   ar
     6    21    22   ar
     7    22    24    1
     8    24    25   ar
     9    25    26   ar
    10    26    27   ar
    11    27    28   ar
    12    28    29   ar
    13    22    23   ar
    14    17     1    1
    15     1     2    1
    16     2     3    1
    17     3     4    1
    18     4    30    1
    19    30    31    1
    20    31    32    1
    21    31    34    1
    22    35    34    1
    23    35    52    1
    24    52    53    1
    25    53    54   ar
    26    54    55   ar
    27    55    56   ar
    28    56    57   ar
    29    57    58   ar
    30    35    36    1
    31    36    37    2
    32    36    38   am
    33    40    38    1
    34    40    41    1
    35    41    42   ar
    36    42    43   ar
    37    43    44   ar
    38    44    45   ar
    39    45    46   ar
    40    46    47    1
    41    47    48    1
    42    48    49    1
    43    49    50    1
    44     4     5    1
    45     5     7    1
    46     7     8    2
    47     7     9   am
    48     9    11    1
    49    11    12    1
    50    12    13    1
    51    12    14    1
    52    12    15    1
    53     5     6    1
    54    23    19   ar
    55     6     1    1
    56    29    24   ar
    57    58    53   ar
    58    49    40    1
    59    46    41   ar
    60    32    33    1
    61    38    39    1
    62    50    51    1
    63     9    10    1
@<TRIPOS>MOLECULE
*****
 58 63 0 0 0
SMALL
GASTEIGER

@<TRIPOS>ATOM
      1 N          59.7483   89.4142    7.1140 N.3     1  UNL1       -0.2663
      2 C          59.3469   87.9692    7.0849 C.3     1  UNL1        0.0899
      3 C          59.6737   87.0766    8.2453 C.3     1  UNL1        0.0901
      4 N          60.4019   87.6289    9.4346 N.3     1  UNL1       -0.2621
      5 C          60.8034   89.0739    9.4637 C.3     1  UNL1        0.1510
      6 C          60.4766   89.9666    8.3034 C.3     1  UNL1        0.0980
      7 C          61.5316   89.6262   10.6530 C.2     1  UNL1        0.2386
      8 O          60.9653   89.4444   12.0301 O.2     1  UNL1       -0.2736
      9 N          62.8262   90.3604   10.4654 N.am    1  UNL1       -0.2961
     10 H          63.1979   90.4798    9.5616 H       1  UNL1        0.1497
     11 C          63.5544   90.9127   11.6548 C.3     1  UNL1        0.1939
     12 C          64.6525   91.9162   11.4622 C.3     1  UNL1        0.4154
     13 F          65.7507   92.9198   11.2697 F       1  UNL1       -0.1682
     14 F          65.2562   91.5071   12.7730 F       1  UNL1       -0.1682
     15 F          64.0488   92.3254   10.1515 F       1  UNL1       -0.1682
     16 C          57.9576   90.1181    6.2207 C.3     1  UNL1        0.0238
     17 C          59.4215   90.3069    5.9536 C.3     1  UNL1        0.0969
     18 C          60.8854   90.4956    5.6865 C.3     1  UNL1        0.0238
     19 C          59.0947   91.1995    4.7933 C.ar    1  UNL1        0.1355
     20 C          57.7260   91.6735    4.4037 C.ar    1  UNL1        0.0374
     21 C          57.8646   92.5419    3.1884 C.ar    1  UNL1        0.0403
     22 C          59.3191   92.6045    2.8270 C.ar    1  UNL1        0.1450
     23 O          60.0794   91.7749    3.8188 O.2     1  UNL1       -0.4565
     24 C          59.9096   93.3635    1.6758 C.ar    1  UNL1        0.0376
     25 C          60.3772   94.7756    1.8694 C.ar    1  UNL1        0.0237
     26 C          60.9677   95.5345    0.7182 C.ar    1  UNL1        0.0990
     27 N          61.0907   94.8815   -0.6265 N.ar    1  UNL1       -0.2423
     28 C          60.6231   93.4694   -0.8201 C.ar    1  UNL1        0.0990
     29 C          60.0326   92.7104    0.3311 C.ar    1  UNL1        0.0237
     30 C          60.7287   86.7362   10.5950 C.3     1  UNL1        0.1021
     31 C          62.1599   86.4626   10.9509 C.3     1  UNL1        0.1269
     32 O          63.0534   87.5872   11.3832 O.3     1  UNL1       -0.3830
     33 H          62.5529   88.4181   11.3780 H       1  UNL1        0.2104
     34 C          62.6976   85.0644   10.8745 C.3     1  UNL1        0.0401
     35 C          63.2821   84.4178   12.0953 C.3     1  UNL1        0.0833
     36 C          62.9572   84.9559   13.4573 C.2     1  UNL1        0.2226
     37 O          61.7146   84.5037   14.1656 O.2     1  UNL1       -0.2751
     38 N          63.8749   85.9460   14.1110 N.am    1  UNL1       -0.2999
     39 H          64.6904   86.2428   13.6461 H       1  UNL1        0.1498
     40 C          63.5501   86.4841   15.4730 C.3     1  UNL1        0.1278
     41 C          63.5924   87.9621   15.7252 C.ar    1  UNL1        0.0320
     42 C          63.9597   88.9021   14.6155 C.ar    1  UNL1        0.0004
     43 C          64.0021   90.3801   14.8677 C.ar    1  UNL1       -0.0001
     44 C          63.6772   90.9182   16.2297 C.ar    1  UNL1        0.0031
     45 C          63.3100   89.9782   17.3394 C.ar    1  UNL1        0.0366
     46 C          63.2676   88.5001   17.0872 C.ar    1  UNL1        0.1362
     47 O          62.9004   87.5602   18.1970 O.3     1  UNL1       -0.4730
     48 C          62.8580   86.0822   17.9447 C.3     1  UNL1        0.2364
     49 C          63.1829   85.5441   16.5827 C.3     1  UNL1        0.1762
     50 O          63.1405   84.0660   16.3305 O.3     1  UNL1       -0.3788
     51 H          62.8877   83.6060   17.1462 H       1  UNL1        0.2106
     52 C          64.1914   83.2332   11.9542 C.3     1  UNL1        0.0355
     53 C          63.6135   81.8649   11.7450 C.ar    1  UNL1       -0.0217
     54 C          63.1174   81.0728   12.9182 C.ar    1  UNL1       -0.0043
     55 C          62.5396   79.7045   12.7089 C.ar    1  UNL1       -0.0003
     56 C          62.4578   79.1282   11.3265 C.ar    1  UNL1       -0.0000
     57 C          62.9540   79.9203   10.1532 C.ar    1  UNL1       -0.0003
     58 C          63.5318   81.2886   10.3624 C.ar    1  UNL1       -0.0043
@<TRIPOS>BOND
     1    16    17    1
     2    17    18    1
     3    17    19    1
     4    19    20   ar
     5    20    21   ar
     6    21    22   ar
     7    22    24    1
     8    24    25   ar
     9    25    26   ar
    10    26    27   ar
    11    27    28   ar
    12    28    29   ar
    13    22    23   ar
    14    17     1    1
    15     1     2    1
    16     2     3    1
    17     3     4    1
    18     4    30    1
    19    30    31    1
    20    31    32    1
    21    31    34    1
    22    35    34    1
    23    35    52    1
    24    52    53    1
    25    53    54   ar
    26    54    55   ar
    27    55    56   ar
    28    56    57   ar
    29    57    58   ar
    30    35    36    1
    31    36    37    2
    32    36    38   am
    33    40    38    1
    34    40    41    1
    35    41    42   ar
    36    42    43   ar
    37    43    44   ar
    38    44    45   ar
    39    45    46   ar
    40    46    47    1
    41    47    48    1
    42    48    49    1
    43    49    50    1
    44     4     5    1
    45     5     7    1
    46     7     8    2
    47     7     9   am
    48     9    11    1
    49    11    12    1
    50    12    13    1
    51    12    14    1
    52    12    15    1
    53     5     6    1
    54    23    19   ar
    55     6     1    1
    56    29    24   ar
    57    58    53   ar
    58    49    40    1
    59    46    41   ar
    60    32    33    1
    61    38    39    1
    62    50    51    1
    63     9    10    1
@<TRIPOS>MOLECULE
*****
 58 63 0 0 0
SMALL
GASTEIGER

@<TRIPOS>ATOM
      1 N          60.0740   89.0095    7.8832 N.3     1  UNL1       -0.2663
      2 C          59.6851   89.4114    9.2750 C.3     1  UNL1        0.0899
      3 C          60.0787   88.5536   10.4409 C.3     1  UNL1        0.0901
      4 N          60.8613   87.2941   10.2150 N.3     1  UNL1       -0.2621
      5 C          61.2502   86.8922    8.8231 C.3     1  UNL1        0.1510
      6 C          60.8566   87.7499    7.6572 C.3     1  UNL1        0.0980
      7 C          62.0328   85.6327    8.5972 C.2     1  UNL1        0.2386
      8 O          62.0339   84.9826    7.2453 O.2     1  UNL1       -0.2736
      9 N          62.8143   85.0230    9.7231 N.am    1  UNL1       -0.2961
     10 H          62.8136   85.4497   10.6104 H       1  UNL1        0.1497
     11 C          63.5968   83.7635    9.4972 C.3     1  UNL1        0.1939
     12 C          63.8115   82.8010   10.6274 C.3     1  UNL1        0.4154
     13 F          64.0260   81.8385   11.7578 F       1  UNL1       -0.1682
     14 F          62.5438   83.2764   11.2730 F       1  UNL1       -0.1682
     15 F          65.0792   82.3256    9.9818 F       1  UNL1       -0.1682
     16 C          58.3392   89.1965    6.6766 C.3     1  UNL1        0.0238
     17 C          59.6803   89.8673    6.7173 C.3     1  UNL1        0.0969
     18 C          61.0214   90.5380    6.7579 C.3     1  UNL1        0.0238
     19 C          59.2866   90.7250    5.5514 C.ar    1  UNL1        0.1355
     20 C          57.8893   91.1320    5.1883 C.ar    1  UNL1        0.0374
     21 C          57.9603   91.9849    3.9563 C.ar    1  UNL1        0.0403
     22 C          59.4014   92.1049    3.5580 C.ar    1  UNL1        0.1450
     23 O          60.2212   91.3263    4.5438 O.2     1  UNL1       -0.4565
     24 C          59.9301   92.8694    2.3807 C.ar    1  UNL1        0.0376
     25 C          61.3646   93.3069    2.3533 C.ar    1  UNL1        0.0237
     26 C          61.8932   94.0714    1.1760 C.ar    1  UNL1        0.0990
     27 N          60.9873   94.3983    0.0260 N.ar    1  UNL1       -0.2423
     28 C          59.5528   93.9607    0.0534 C.ar    1  UNL1        0.0990
     29 C          59.0242   93.1963    1.2307 C.ar    1  UNL1        0.0237
     30 C          61.2549   86.4364   11.3809 C.3     1  UNL1        0.1021
     31 C          62.4265   86.8225   12.2343 C.3     1  UNL1        0.1269
     32 O          63.2170   85.7648   12.9458 O.3     1  UNL1       -0.3830
     33 H          62.8409   84.8926   12.7487 H       1  UNL1        0.2104
     34 C          62.8074   88.2664   12.3763 C.3     1  UNL1        0.0401
     35 C          63.8436   88.6733   13.3816 C.3     1  UNL1        0.0833
     36 C          64.2606   90.1101   13.4893 C.2     1  UNL1        0.2226
     37 O          63.5120   91.0425   14.3951 O.2     1  UNL1       -0.2751
     38 N          65.4261   90.6146   12.6912 N.am    1  UNL1       -0.2999
     39 H          65.9174   90.0027   12.0967 H       1  UNL1        0.1498
     40 C          65.8431   92.0515   12.7989 C.3     1  UNL1        0.1278
     41 C          66.6846   92.5036   13.9553 C.ar    1  UNL1        0.0320
     42 C          67.1091   91.5188   15.0042 C.ar    1  UNL1        0.0004
     43 C          67.9505   91.9709   16.1607 C.ar    1  UNL1       -0.0001
     44 C          68.3675   93.4078   16.2684 C.ar    1  UNL1        0.0031
     45 C          67.9431   94.3925   15.2196 C.ar    1  UNL1        0.0366
     46 C          67.1016   93.9404   14.0630 C.ar    1  UNL1        0.1362
     47 O          66.6771   94.9252   13.0142 O.3     1  UNL1       -0.4730
     48 C          65.8356   94.4731   11.8577 C.3     1  UNL1        0.2364
     49 C          65.4186   93.0362   11.7500 C.3     1  UNL1        0.1762
     50 O          64.5771   92.5842   10.5935 O.3     1  UNL1       -0.3788
     51 H          64.3931   93.3391   10.0129 H       1  UNL1        0.2106
     52 C          64.4629   87.6433   14.2793 C.3     1  UNL1        0.0355
     53 C          63.8396   87.3346   15.6082 C.ar    1  UNL1       -0.0217
     54 C          63.7348   85.9130   16.0753 C.ar    1  UNL1       -0.0043
     55 C          63.1114   85.6043   17.4044 C.ar    1  UNL1       -0.0003
     56 C          62.5930   86.7171   18.2662 C.ar    1  UNL1       -0.0000
     57 C          62.6978   88.1386   17.7991 C.ar    1  UNL1       -0.0003
     58 C          63.3210   88.4474   16.4702 C.ar    1  UNL1       -0.0043
@<TRIPOS>BOND
     1    16    17    1
     2    17    18    1
     3    17    19    1
     4    19    20   ar
     5    20    21   ar
     6    21    22   ar
     7    22    24    1
     8    24    25   ar
     9    25    26   ar
    10    26    27   ar
    11    27    28   ar
    12    28    29   ar
    13    22    23   ar
    14    17     1    1
    15     1     2    1
    16     2     3    1
    17     3     4    1
    18     4    30    1
    19    30    31    1
    20    31    32    1
    21    31    34    1
    22    35    34    1
    23    35    52    1
    24    52    53    1
    25    53    54   ar
    26    54    55   ar
    27    55    56   ar
    28    56    57   ar
    29    57    58   ar
    30    35    36    1
    31    36    37    2
    32    36    38   am
    33    40    38    1
    34    40    41    1
    35    41    42   ar
    36    42    43   ar
    37    43    44   ar
    38    44    45   ar
    39    45    46   ar
    40    46    47    1
    41    47    48    1
    42    48    49    1
    43    49    50    1
    44     4     5    1
    45     5     7    1
    46     7     8    2
    47     7     9   am
    48     9    11    1
    49    11    12    1
    50    12    13    1
    51    12    14    1
    52    12    15    1
    53     5     6    1
    54    23    19   ar
    55     6     1    1
    56    29    24   ar
    57    58    53   ar
    58    49    40    1
    59    46    41   ar
    60    32    33    1
    61    38    39    1
    62    50    51    1
    63     9    10    1
@<TRIPOS>MOLECULE
*****
 58 63 0 0 0
SMALL
GASTEIGER

@<TRIPOS>ATOM
      1 N          62.0635   87.2391   11.2201 N.3     1  UNL1       -0.2663
      2 C          63.0442   88.2281   11.7768 C.3     1  UNL1        0.0899
      3 C          63.7784   87.9217   13.0485 C.3     1  UNL1        0.0901
      4 N          63.5318   86.6264   13.7635 N.3     1  UNL1       -0.2621
      5 C          62.5510   85.6373   13.2068 C.3     1  UNL1        0.1510
      6 C          61.8168   85.9436   11.9351 C.3     1  UNL1        0.0980
      7 C          62.3044   84.3419   13.9217 C.2     1  UNL1        0.2386
      8 O          61.5898   84.3374   15.2405 O.2     1  UNL1       -0.2736
      9 N          62.7725   83.0510   13.3179 N.am    1  UNL1       -0.2961
     10 H          63.2415   83.0540   12.4523 H       1  UNL1        0.1497
     11 C          62.5259   81.7557   14.0328 C.3     1  UNL1        0.1939
     12 C          62.4605   80.4725   13.2588 C.3     1  UNL1        0.4154
     13 F          62.3952   79.1893   12.4847 F       1  UNL1       -0.1682
     14 F          63.8222   80.7451   12.6918 F       1  UNL1       -0.1682
     15 F          61.0989   80.1999   13.8258 F       1  UNL1       -0.1682
     16 C          62.2123   88.7374    9.7259 C.3     1  UNL1        0.0238
     17 C          61.3293   87.5454    9.9485 C.3     1  UNL1        0.0969
     18 C          60.4464   86.3534   10.1710 C.3     1  UNL1        0.0238
     19 C          60.5952   87.8518    8.6768 C.ar    1  UNL1        0.1355
     20 C          59.9421   86.8491    7.7723 C.ar    1  UNL1        0.0374
     21 C          59.3285   87.5922    6.6228 C.ar    1  UNL1        0.0403
     22 C          59.6023   89.0542    6.8169 C.ar    1  UNL1        0.1450
     23 O          60.3852   89.2147    8.0863 O.2     1  UNL1       -0.4565
     24 C          59.1693   90.1614    5.9022 C.ar    1  UNL1        0.0376
     25 C          60.1940   90.9505    5.1424 C.ar    1  UNL1        0.0237
     26 C          59.7611   92.0577    4.2277 C.ar    1  UNL1        0.0990
     27 N          58.3034   92.3757    4.0728 N.ar    1  UNL1       -0.2423
     28 C          57.2787   91.5866    4.8326 C.ar    1  UNL1        0.0990
     29 C          57.7117   90.4795    5.7473 C.ar    1  UNL1        0.0237
     30 C          64.2659   86.3200   15.0352 C.3     1  UNL1        0.1021
     31 C          63.6802   86.7246   16.3554 C.3     1  UNL1        0.1269
     32 O          62.9358   85.7207   17.1848 O.3     1  UNL1       -0.3830
     33 H          62.9256   84.8661   16.7261 H       1  UNL1        0.2104
     34 C          63.8389   88.1331   16.8463 C.3     1  UNL1        0.0401
     35 C          63.0411   89.2393   16.2221 C.3     1  UNL1        0.0833
     36 C          63.7217   90.5055   15.7936 C.2     1  UNL1        0.2226
     37 O          63.3092   91.8180   16.3914 O.2     1  UNL1       -0.2751
     38 N          64.8147   90.4592   14.7675 N.am    1  UNL1       -0.2999
     39 H          65.0855   89.5978   14.3752 H       1  UNL1        0.1498
     40 C          65.4953   91.7254   14.3390 C.3     1  UNL1        0.1278
     41 C          65.3402   92.2211   12.9319 C.ar    1  UNL1        0.0320
     42 C          64.5044   91.4507   11.9531 C.ar    1  UNL1        0.0004
     43 C          64.3493   91.9464   10.5459 C.ar    1  UNL1       -0.0001
     44 C          65.0299   93.2126   10.1175 C.ar    1  UNL1        0.0031
     45 C          65.8657   93.9830   11.0962 C.ar    1  UNL1        0.0366
     46 C          66.0208   93.4873   12.5034 C.ar    1  UNL1        0.1362
     47 O          66.8566   94.2577   13.4822 O.3     1  UNL1       -0.4730
     48 C          67.0117   93.7620   14.8893 C.3     1  UNL1        0.2364
     49 C          66.3311   92.4958   15.3177 C.3     1  UNL1        0.1762
     50 O          66.4863   92.0001   16.7250 O.3     1  UNL1       -0.3788
     51 H          67.0535   92.6101   17.2220 H       1  UNL1        0.2106
     52 C          61.5625   89.0793   16.0263 C.3     1  UNL1        0.0355
     53 C          60.9448   89.3859   14.6942 C.ar    1  UNL1       -0.0217
     54 C          61.7325   90.1274   13.6551 C.ar    1  UNL1       -0.0043
     55 C          61.1148   90.4340   12.3229 C.ar    1  UNL1       -0.0003
     56 C          59.7095   89.9990   12.0300 C.ar    1  UNL1       -0.0000
     57 C          58.9218   89.2575   13.0691 C.ar    1  UNL1       -0.0003
     58 C          59.5394   88.9509   14.4011 C.ar    1  UNL1       -0.0043
@<TRIPOS>BOND
     1    16    17    1
     2    17    18    1
     3    17    19    1
     4    19    20   ar
     5    20    21   ar
     6    21    22   ar
     7    22    24    1
     8    24    25   ar
     9    25    26   ar
    10    26    27   ar
    11    27    28   ar
    12    28    29   ar
    13    22    23   ar
    14    17     1    1
    15     1     2    1
    16     2     3    1
    17     3     4    1
    18     4    30    1
    19    30    31    1
    20    31    32    1
    21    31    34    1
    22    35    34    1
    23    35    52    1
    24    52    53    1
    25    53    54   ar
    26    54    55   ar
    27    55    56   ar
    28    56    57   ar
    29    57    58   ar
    30    35    36    1
    31    36    37    2
    32    36    38   am
    33    40    38    1
    34    40    41    1
    35    41    42   ar
    36    42    43   ar
    37    43    44   ar
    38    44    45   ar
    39    45    46   ar
    40    46    47    1
    41    47    48    1
    42    48    49    1
    43    49    50    1
    44     4     5    1
    45     5     7    1
    46     7     8    2
    47     7     9   am
    48     9    11    1
    49    11    12    1
    50    12    13    1
    51    12    14    1
    52    12    15    1
    53     5     6    1
    54    23    19   ar
    55     6     1    1
    56    29    24   ar
    57    58    53   ar
    58    49    40    1
    59    46    41   ar
    60    32    33    1
    61    38    39    1
    62    50    51    1
    63     9    10    1
@<TRIPOS>MOLECULE
*****
 58 63 0 0 0
SMALL
GASTEIGER

@<TRIPOS>ATOM
      1 N          60.1339   88.9863    8.0316 N.3     1  UNL1       -0.2663
      2 C          59.7473   89.4017    9.4201 C.3     1  UNL1        0.0899
      3 C          60.1590   88.5652   10.5952 C.3     1  UNL1        0.0901
      4 N          60.9572   87.3134   10.3818 N.3     1  UNL1       -0.2621
      5 C          61.3438   86.8979    8.9932 C.3     1  UNL1        0.1510
      6 C          60.9321   87.7344    7.8181 C.3     1  UNL1        0.0980
      7 C          62.1420   85.6460    8.7798 C.2     1  UNL1        0.2386
      8 O          62.2968   85.0815    7.3987 O.2     1  UNL1       -0.2736
      9 N          62.7856   84.9586    9.9475 N.am    1  UNL1       -0.2961
     10 H          62.6840   85.3291   10.8539 H       1  UNL1        0.1497
     11 C          63.5838   83.7067    9.7340 C.3     1  UNL1        0.1939
     12 C          63.5716   82.6235   10.7715 C.3     1  UNL1        0.4154
     13 F          63.5593   81.5402   11.8091 F       1  UNL1       -0.1682
     14 F          62.4340   83.3064   11.4711 F       1  UNL1       -0.1682
     15 F          64.7092   81.9406   10.0719 F       1  UNL1       -0.1682
     16 C          58.4919   88.9813    6.6885 C.3     1  UNL1        0.0238
     17 C          59.7222   89.8228    6.8565 C.3     1  UNL1        0.0969
     18 C          60.9524   90.6644    7.0246 C.3     1  UNL1        0.0238
     19 C          59.3105   90.6593    5.6815 C.ar    1  UNL1        0.1355
     20 C          57.9043   91.0250    5.3090 C.ar    1  UNL1        0.0374
     21 C          57.9574   91.8687    4.0699 C.ar    1  UNL1        0.0403
     22 C          59.3965   92.0244    3.6765 C.ar    1  UNL1        0.1450
     23 O          60.2328   91.2769    4.6725 O.2     1  UNL1       -0.4565
     24 C          59.9093   92.7926    2.4946 C.ar    1  UNL1        0.0376
     25 C          58.9842   93.1374    1.3654 C.ar    1  UNL1        0.0237
     26 C          59.4970   93.9056    0.1835 C.ar    1  UNL1        0.0990
     27 N          60.9350   94.3290    0.1309 N.ar    1  UNL1       -0.2423
     28 C          61.8602   93.9842    1.2601 C.ar    1  UNL1        0.0990
     29 C          61.3473   93.2160    2.4420 C.ar    1  UNL1        0.0237
     30 C          61.3689   86.4769   11.5569 C.3     1  UNL1        0.1021
     31 C          62.6344   86.7944   12.2969 C.3     1  UNL1        0.1269
     32 O          63.4193   85.6939   12.9470 O.3     1  UNL1       -0.3830
     33 H          62.9739   84.8457   12.7949 H       1  UNL1        0.2104
     34 C          63.1149   88.2125   12.3869 C.3     1  UNL1        0.0401
     35 C          64.0231   88.6270   13.5064 C.3     1  UNL1        0.0833
     36 C          64.3810   90.0726   13.6857 C.2     1  UNL1        0.2226
     37 O          63.3321   91.0580   14.1090 O.2     1  UNL1       -0.2751
     38 N          65.7876   90.5329   13.4418 N.am    1  UNL1       -0.2999
     39 H          66.4760   89.8862   13.1641 H       1  UNL1        0.1498
     40 C          66.1455   91.9785   13.6212 C.3     1  UNL1        0.1278
     41 C          65.9441   92.9465   12.4932 C.ar    1  UNL1        0.0320
     42 C          65.3849   92.4689   11.1858 C.ar    1  UNL1        0.0004
     43 C          65.1835   93.4369   10.0578 C.ar    1  UNL1       -0.0001
     44 C          65.5414   94.8825   10.2372 C.ar    1  UNL1        0.0031
     45 C          66.1006   95.3601   11.5445 C.ar    1  UNL1        0.0366
     46 C          66.3020   94.3921   12.6725 C.ar    1  UNL1        0.1362
     47 O          66.8612   94.8697   13.9798 O.3     1  UNL1       -0.4730
     48 C          67.0626   93.9017   15.1078 C.3     1  UNL1        0.2364
     49 C          66.7047   92.4561   14.9285 C.3     1  UNL1        0.1762
     50 O          66.9061   91.4881   16.0566 O.3     1  UNL1       -0.3788
     51 H          67.2723   91.9564   16.8230 H       1  UNL1        0.2106
     52 C          64.5735   87.5959   14.4466 C.3     1  UNL1        0.0355
     53 C          63.8710   87.3098   15.7407 C.ar    1  UNL1       -0.0217
     54 C          63.4021   88.4420   16.6058 C.ar    1  UNL1       -0.0043
     55 C          62.6996   88.1558   17.8999 C.ar    1  UNL1       -0.0003
     56 C          62.4660   86.7376   18.3289 C.ar    1  UNL1       -0.0000
     57 C          62.9349   85.6055   17.4638 C.ar    1  UNL1       -0.0003
     58 C          63.6374   85.8916   16.1697 C.ar    1  UNL1       -0.0043
@<TRIPOS>BOND
     1    16    17    1
     2    17    18    1
     3    17    19    1
     4    19    20   ar
     5    20    21   ar
     6    21    22   ar
     7    22    24    1
     8    24    25   ar
     9    25    26   ar
    10    26    27   ar
    11    27    28   ar
    12    28    29   ar
    13    22    23   ar
    14    17     1    1
    15     1     2    1
    16     2     3    1
    17     3     4    1
    18     4    30    1
    19    30    31    1
    20    31    32    1
    21    31    34    1
    22    35    34    1
    23    35    52    1
    24    52    53    1
    25    53    54   ar
    26    54    55   ar
    27    55    56   ar
    28    56    57   ar
    29    57    58   ar
    30    35    36    1
    31    36    37    2
    32    36    38   am
    33    40    38    1
    34    40    41    1
    35    41    42   ar
    36    42    43   ar
    37    43    44   ar
    38    44    45   ar
    39    45    46   ar
    40    46    47    1
    41    47    48    1
    42    48    49    1
    43    49    50    1
    44     4     5    1
    45     5     7    1
    46     7     8    2
    47     7     9   am
    48     9    11    1
    49    11    12    1
    50    12    13    1
    51    12    14    1
    52    12    15    1
    53     5     6    1
    54    23    19   ar
    55     6     1    1
    56    29    24   ar
    57    58    53   ar
    58    49    40    1
    59    46    41   ar
    60    32    33    1
    61    38    39    1
    62    50    51    1
    63     9    10    1
@<TRIPOS>MOLECULE
*****
 58 63 0 0 0
SMALL
GASTEIGER

@<TRIPOS>ATOM
      1 N          59.8220   90.4257    5.9909 N.3     1  UNL1       -0.2663
      2 C          59.4506   91.0846    7.2862 C.3     1  UNL1        0.0899
      3 C          59.3095   90.2620    8.5326 C.3     1  UNL1        0.0901
      4 N          59.5399   88.7807    8.4838 N.3     1  UNL1       -0.2621
      5 C          59.9114   88.1218    7.1884 C.3     1  UNL1        0.1510
      6 C          60.0524   88.9443    5.9420 C.3     1  UNL1        0.0980
      7 C          60.1417   86.6404    7.1395 C.2     1  UNL1        0.2386
      8 O          58.9733   85.7001    7.1141 O.2     1  UNL1       -0.2736
      9 N          61.5406   86.0993    7.1160 N.am    1  UNL1       -0.2961
     10 H          62.3075   86.7164    7.1327 H       1  UNL1        0.1497
     11 C          61.7710   84.6179    7.0672 C.3     1  UNL1        0.1939
     12 C          61.9038   83.9228    5.7446 C.3     1  UNL1        0.4154
     13 F          62.0365   83.2277    4.4220 F       1  UNL1       -0.1682
     14 F          60.5359   83.3321    5.9178 F       1  UNL1       -0.1682
     15 F          63.2716   84.5136    5.5714 F       1  UNL1       -0.1682
     16 C          58.5126   91.6216    4.8267 C.3     1  UNL1        0.0238
     17 C          59.9631   91.2482    4.7445 C.3     1  UNL1        0.0969
     18 C          61.4135   90.8748    4.6622 C.3     1  UNL1        0.0238
     19 C          60.1042   92.0707    3.4981 C.ar    1  UNL1        0.1355
     20 C          61.3922   92.5628    2.9075 C.ar    1  UNL1        0.0374
     21 C          61.0661   93.3418    1.6678 C.ar    1  UNL1        0.0403
     22 C          59.5764   93.3311    1.4922 C.ar    1  UNL1        0.1450
     23 O          58.9818   92.5456    2.6233 O.2     1  UNL1       -0.4565
     24 C          58.8149   93.9903    0.3806 C.ar    1  UNL1        0.0376
     25 C          57.8455   93.1927   -0.4404 C.ar    1  UNL1        0.0237
     26 C          57.0840   93.8518   -1.5520 C.ar    1  UNL1        0.0990
     27 N          57.2919   95.3086   -1.8426 N.ar    1  UNL1       -0.2423
     28 C          58.2614   96.1062   -1.0216 C.ar    1  UNL1        0.0990
     29 C          59.0229   95.4471    0.0900 C.ar    1  UNL1        0.0237
     30 C          59.3988   87.9582    9.7302 C.3     1  UNL1        0.1021
     31 C          60.3370   88.1729   10.8806 C.3     1  UNL1        0.1269
     32 O          59.8858   88.9505   12.0813 O.3     1  UNL1       -0.3830
     33 H          58.9692   89.2406   11.9528 H       1  UNL1        0.2104
     34 C          61.7265   87.6100   10.8304 C.3     1  UNL1        0.0401
     35 C          62.4008   87.1631   12.0935 C.3     1  UNL1        0.0833
     36 C          63.2164   88.1356   12.8929 C.2     1  UNL1        0.2226
     37 O          64.2790   87.6346   13.8257 O.2     1  UNL1       -0.2751
     38 N          62.9696   89.6091   12.7594 N.am    1  UNL1       -0.2999
     39 H          62.2723   89.9379   12.1471 H       1  UNL1        0.1498
     40 C          63.7853   90.5817   13.5587 C.3     1  UNL1        0.1278
     41 C          64.6460   91.5915   12.8592 C.ar    1  UNL1        0.0320
     42 C          64.6910   91.6289   11.3603 C.ar    1  UNL1        0.0004
     43 C          65.5517   92.6388   10.6608 C.ar    1  UNL1       -0.0001
     44 C          66.3674   93.6113   11.4601 C.ar    1  UNL1        0.0031
     45 C          66.3223   93.5740   12.9589 C.ar    1  UNL1        0.0366
     46 C          65.4616   92.5641   13.6585 C.ar    1  UNL1        0.1362
     47 O          65.4165   92.5267   15.1573 O.3     1  UNL1       -0.4730
     48 C          64.5559   91.5169   15.8568 C.3     1  UNL1        0.2364
     49 C          63.7402   90.5443   15.0575 C.3     1  UNL1        0.1762
     50 O          62.8795   89.5344   15.7571 O.3     1  UNL1       -0.3788
     51 H          62.9652   89.6460   16.7169 H       1  UNL1        0.2106
     52 C          62.2595   85.7436   12.5574 C.3     1  UNL1        0.0355
     53 C          63.0443   84.6543   11.8886 C.ar    1  UNL1       -0.0217
     54 C          63.7851   83.6467   12.7168 C.ar    1  UNL1       -0.0043
     55 C          64.5700   82.5574   12.0478 C.ar    1  UNL1       -0.0003
     56 C          64.6141   82.4757   10.5507 C.ar    1  UNL1       -0.0000
     57 C          63.8733   83.4834    9.7225 C.ar    1  UNL1       -0.0003
     58 C          63.0884   84.5726   10.3914 C.ar    1  UNL1       -0.0043
@<TRIPOS>BOND
     1    16    17    1
     2    17    18    1
     3    17    19    1
     4    19    20   ar
     5    20    21   ar
     6    21    22   ar
     7    22    24    1
     8    24    25   ar
     9    25    26   ar
    10    26    27   ar
    11    27    28   ar
    12    28    29   ar
    13    22    23   ar
    14    17     1    1
    15     1     2    1
    16     2     3    1
    17     3     4    1
    18     4    30    1
    19    30    31    1
    20    31    32    1
    21    31    34    1
    22    35    34    1
    23    35    52    1
    24    52    53    1
    25    53    54   ar
    26    54    55   ar
    27    55    56   ar
    28    56    57   ar
    29    57    58   ar
    30    35    36    1
    31    36    37    2
    32    36    38   am
    33    40    38    1
    34    40    41    1
    35    41    42   ar
    36    42    43   ar
    37    43    44   ar
    38    44    45   ar
    39    45    46   ar
    40    46    47    1
    41    47    48    1
    42    48    49    1
    43    49    50    1
    44     4     5    1
    45     5     7    1
    46     7     8    2
    47     7     9   am
    48     9    11    1
    49    11    12    1
    50    12    13    1
    51    12    14    1
    52    12    15    1
    53     5     6    1
    54    23    19   ar
    55     6     1    1
    56    29    24   ar
    57    58    53   ar
    58    49    40    1
    59    46    41   ar
    60    32    33    1
    61    38    39    1
    62    50    51    1
    63     9    10    1
@<TRIPOS>MOLECULE
*****
 58 63 0 0 0
SMALL
GASTEIGER

@<TRIPOS>ATOM
      1 N          62.9903   85.3158   12.7596 N.3     1  UNL1       -0.2663
      2 C          63.7415   85.9269   13.9051 C.3     1  UNL1        0.0899
      3 C          63.9164   87.4149   13.9787 C.3     1  UNL1        0.0901
      4 N          63.3401   88.2917   12.9068 N.3     1  UNL1       -0.2621
      5 C          62.5888   87.6806   11.7612 C.3     1  UNL1        0.1510
      6 C          62.4139   86.1926   11.6876 C.3     1  UNL1        0.0980
      7 C          62.0125   88.5574   10.6893 C.2     1  UNL1        0.2386
      8 O          62.8224   89.6896   10.1305 O.2     1  UNL1       -0.2736
      9 N          60.6263   88.3021   10.1762 N.am    1  UNL1       -0.2961
     10 H          60.0947   87.5591   10.5430 H       1  UNL1        0.1497
     11 C          60.0500   89.1790    9.1043 C.3     1  UNL1        0.1939
     12 C          59.5143   88.5683    7.8433 C.3     1  UNL1        0.4154
     13 F          58.9787   87.9577    6.5822 F       1  UNL1       -0.1682
     14 F          59.7247   89.8680    7.1246 F       1  UNL1       -0.1682
     15 F          59.3040   87.2687    8.5621 F       1  UNL1       -0.1682
     16 C          62.5086   83.7913   14.1539 C.3     1  UNL1        0.0238
     17 C          62.8153   83.8278   12.6860 C.3     1  UNL1        0.0969
     18 C          63.1221   83.8644   11.2182 C.3     1  UNL1        0.0238
     19 C          62.6404   82.3399   12.6124 C.ar    1  UNL1        0.1355
     20 C          61.9499   81.4819   13.6307 C.ar    1  UNL1        0.0374
     21 C          62.0080   80.0604   13.1552 C.ar    1  UNL1        0.0403
     22 C          62.7346   80.0399   11.8431 C.ar    1  UNL1        0.1450
     23 O          63.1254   81.4487   11.5075 O.2     1  UNL1       -0.4565
     24 C          63.0201   78.8241   11.0123 C.ar    1  UNL1        0.0376
     25 C          63.5824   78.9755    9.6299 C.ar    1  UNL1        0.0237
     26 C          63.8679   77.7597    8.7991 C.ar    1  UNL1        0.0990
     27 N          63.5912   76.3925    9.3506 N.ar    1  UNL1       -0.2423
     28 C          63.0290   76.2411   10.7330 C.ar    1  UNL1        0.0990
     29 C          62.7434   77.4569   11.5638 C.ar    1  UNL1        0.0237
     30 C          63.5150   89.7796   12.9804 C.3     1  UNL1        0.1021
     31 C          63.3477   90.4906   14.2906 C.3     1  UNL1        0.1269
     32 O          62.4082   89.9455   15.3250 O.3     1  UNL1       -0.3830
     33 H          61.9927   89.1356   14.9898 H       1  UNL1        0.2104
     34 C          64.1200   91.7466   14.5663 C.3     1  UNL1        0.0401
     35 C          65.4871   91.9310   13.9772 C.3     1  UNL1        0.0833
     36 C          65.6546   92.6874   12.6928 C.2     1  UNL1        0.2226
     37 O          64.9741   92.2070   11.4453 O.2     1  UNL1       -0.2751
     38 N          66.5024   93.9242   12.6559 N.am    1  UNL1       -0.2999
     39 H          66.9490   94.2395   13.4746 H       1  UNL1        0.1498
     40 C          66.6699   94.6807   11.3714 C.3     1  UNL1        0.1278
     41 C          67.3509   94.0326   10.2027 C.ar    1  UNL1        0.0320
     42 C          67.8646   92.6280   10.3183 C.ar    1  UNL1        0.0004
     43 C          68.5456   91.9799    9.1495 C.ar    1  UNL1       -0.0001
     44 C          68.7131   92.7363    7.8651 C.ar    1  UNL1        0.0031
     45 C          68.1995   94.1409    7.7494 C.ar    1  UNL1        0.0366
     46 C          67.5184   94.7890    8.9182 C.ar    1  UNL1        0.1362
     47 O          67.0048   96.1936    8.8026 O.3     1  UNL1       -0.4730
     48 C          66.3238   96.8417    9.9714 C.3     1  UNL1        0.2364
     49 C          66.1563   96.0852   11.2558 C.3     1  UNL1        0.1762
     50 O          65.4752   96.7334   12.4246 O.3     1  UNL1       -0.3788
     51 H          65.2066   97.6338   12.1837 H       1  UNL1        0.2106
     52 C          66.6869   91.3589   14.6726 C.3     1  UNL1        0.0355
     53 C          67.8368   92.2495   15.0392 C.ar    1  UNL1       -0.0217
     54 C          69.1700   92.0636   14.3776 C.ar    1  UNL1       -0.0043
     55 C          70.3200   92.9543   14.7442 C.ar    1  UNL1       -0.0003
     56 C          70.1366   94.0308   15.7725 C.ar    1  UNL1       -0.0000
     57 C          68.8033   94.2168   16.4342 C.ar    1  UNL1       -0.0003
     58 C          67.6534   93.3262   16.0675 C.ar    1  UNL1       -0.0043
@<TRIPOS>BOND
     1    16    17    1
     2    17    18    1
     3    17    19    1
     4    19    20   ar
     5    20    21   ar
     6    21    22   ar
     7    22    24    1
     8    24    25   ar
     9    25    26   ar
    10    26    27   ar
    11    27    28   ar
    12    28    29   ar
    13    22    23   ar
    14    17     1    1
    15     1     2    1
    16     2     3    1
    17     3     4    1
    18     4    30    1
    19    30    31    1
    20    31    32    1
    21    31    34    1
    22    35    34    1
    23    35    52    1
    24    52    53    1
    25    53    54   ar
    26    54    55   ar
    27    55    56   ar
    28    56    57   ar
    29    57    58   ar
    30    35    36    1
    31    36    37    2
    32    36    38   am
    33    40    38    1
    34    40    41    1
    35    41    42   ar
    36    42    43   ar
    37    43    44   ar
    38    44    45   ar
    39    45    46   ar
    40    46    47    1
    41    47    48    1
    42    48    49    1
    43    49    50    1
    44     4     5    1
    45     5     7    1
    46     7     8    2
    47     7     9   am
    48     9    11    1
    49    11    12    1
    50    12    13    1
    51    12    14    1
    52    12    15    1
    53     5     6    1
    54    23    19   ar
    55     6     1    1
    56    29    24   ar
    57    58    53   ar
    58    49    40    1
    59    46    41   ar
    60    32    33    1
    61    38    39    1
    62    50    51    1
    63     9    10    1
@<TRIPOS>MOLECULE
*****
 58 63 0 0 0
SMALL
GASTEIGER

@<TRIPOS>ATOM
      1 N          62.0105   87.1776   11.0315 N.3     1  UNL1       -0.2663
      2 C          62.8770   88.2085   11.6920 C.3     1  UNL1        0.0899
      3 C          63.6338   87.8639   12.9404 C.3     1  UNL1        0.0901
      4 N          63.5241   86.4883   13.5283 N.3     1  UNL1       -0.2621
      5 C          62.6575   85.4573   12.8678 C.3     1  UNL1        0.1510
      6 C          61.9007   85.8020   11.6195 C.3     1  UNL1        0.0980
      7 C          62.5477   84.0817   13.4558 C.2     1  UNL1        0.2386
      8 O          61.8483   83.8803   14.7674 O.2     1  UNL1       -0.2736
      9 N          63.1373   82.9075   12.7321 N.am    1  UNL1       -0.2961
     10 H          63.5963   83.0397   11.8712 H       1  UNL1        0.1497
     11 C          63.0275   81.5319   13.3200 C.3     1  UNL1        0.1939
     12 C          62.7711   80.3534   12.4282 C.3     1  UNL1        0.4154
     13 F          62.5147   79.1749   11.5363 F       1  UNL1       -0.1682
     14 F          63.2201   81.1537   11.2416 F       1  UNL1       -0.1682
     15 F          62.3220   79.5532   13.6147 F       1  UNL1       -0.1682
     16 C          61.6942   88.9505    9.9104 C.3     1  UNL1        0.0238
     17 C          61.2537   87.5223    9.7832 C.3     1  UNL1        0.0969
     18 C          60.8131   86.0941    9.6559 C.3     1  UNL1        0.0238
     19 C          60.4969   87.8670    8.5348 C.ar    1  UNL1        0.1355
     20 C          59.6995   86.9132    7.6954 C.ar    1  UNL1        0.0374
     21 C          59.1144   87.6827    6.5484 C.ar    1  UNL1        0.0403
     22 C          59.5502   89.1121    6.6789 C.ar    1  UNL1        0.1450
     23 O          60.4046   89.2260    7.9065 O.2     1  UNL1       -0.4565
     24 C          59.1941   90.2311    5.7456 C.ar    1  UNL1        0.0376
     25 C          60.2714   90.9418    4.9813 C.ar    1  UNL1        0.0237
     26 C          59.9153   92.0609    4.0481 C.ar    1  UNL1        0.0990
     27 N          58.4819   92.4691    3.8791 N.ar    1  UNL1       -0.2423
     28 C          57.4046   91.7583    4.6435 C.ar    1  UNL1        0.0990
     29 C          57.7606   90.6393    5.5767 C.ar    1  UNL1        0.0237
     30 C          64.2809   86.1436   14.7767 C.3     1  UNL1        0.1021
     31 C          63.7488   86.5609   16.1156 C.3     1  UNL1        0.1269
     32 O          62.9723   85.5866   16.9509 O.3     1  UNL1       -0.3830
     33 H          62.9061   84.7399   16.4823 H       1  UNL1        0.2104
     34 C          63.9933   87.9525   16.6193 C.3     1  UNL1        0.0401
     35 C          63.1297   89.0840   16.1460 C.3     1  UNL1        0.0833
     36 C          63.7588   90.3159   15.5660 C.2     1  UNL1        0.2226
     37 O          63.4113   91.6666   16.1184 O.2     1  UNL1       -0.2751
     38 N          64.7354   90.1973   14.4338 N.am    1  UNL1       -0.2999
     39 H          64.9635   89.3108   14.0712 H       1  UNL1        0.1498
     40 C          65.3646   91.4293   13.8538 C.3     1  UNL1        0.1278
     41 C          66.4758   92.1202   14.5871 C.ar    1  UNL1        0.0320
     42 C          66.9579   91.5792   15.9005 C.ar    1  UNL1        0.0004
     43 C          68.0691   92.2701   16.6338 C.ar    1  UNL1       -0.0001
     44 C          68.6982   93.5021   16.0538 C.ar    1  UNL1        0.0031
     45 C          68.2162   94.0431   14.7405 C.ar    1  UNL1        0.0366
     46 C          67.1049   93.3522   14.0071 C.ar    1  UNL1        0.1362
     47 O          66.6229   93.8932   12.6938 O.3     1  UNL1       -0.4730
     48 C          65.5117   93.2023   11.9605 C.3     1  UNL1        0.2364
     49 C          64.8825   91.9703   12.5404 C.3     1  UNL1        0.1762
     50 O          63.7713   91.2794   11.8070 O.3     1  UNL1       -0.3788
     51 H          63.5835   91.7546   10.9825 H       1  UNL1        0.2106
     52 C          61.6368   88.9834   16.2528 C.3     1  UNL1        0.0355
     53 C          60.7843   89.1546   15.0306 C.ar    1  UNL1       -0.0217
     54 C          61.3429   89.8343   13.8157 C.ar    1  UNL1       -0.0043
     55 C          60.4902   90.0055   12.5934 C.ar    1  UNL1       -0.0003
     56 C          59.0791   89.4970   12.5861 C.ar    1  UNL1       -0.0000
     57 C          58.5205   88.8173   13.8010 C.ar    1  UNL1       -0.0003
     58 C          59.3731   88.6461   15.0232 C.ar    1  UNL1       -0.0043
@<TRIPOS>BOND
     1    16    17    1
     2    17    18    1
     3    17    19    1
     4    19    20   ar
     5    20    21   ar
     6    21    22   ar
     7    22    24    1
     8    24    25   ar
     9    25    26   ar
    10    26    27   ar
    11    27    28   ar
    12    28    29   ar
    13    22    23   ar
    14    17     1    1
    15     1     2    1
    16     2     3    1
    17     3     4    1
    18     4    30    1
    19    30    31    1
    20    31    32    1
    21    31    34    1
    22    35    34    1
    23    35    52    1
    24    52    53    1
    25    53    54   ar
    26    54    55   ar
    27    55    56   ar
    28    56    57   ar
    29    57    58   ar
    30    35    36    1
    31    36    37    2
    32    36    38   am
    33    40    38    1
    34    40    41    1
    35    41    42   ar
    36    42    43   ar
    37    43    44   ar
    38    44    45   ar
    39    45    46   ar
    40    46    47    1
    41    47    48    1
    42    48    49    1
    43    49    50    1
    44     4     5    1
    45     5     7    1
    46     7     8    2
    47     7     9   am
    48     9    11    1
    49    11    12    1
    50    12    13    1
    51    12    14    1
    52    12    15    1
    53     5     6    1
    54    23    19   ar
    55     6     1    1
    56    29    24   ar
    57    58    53   ar
    58    49    40    1
    59    46    41   ar
    60    32    33    1
    61    38    39    1
    62    50    51    1
    63     9    10    1
