@<TRIPOS>MOLECULE
*****
 34 37 0 0 0
SMALL
GASTEIGER

@<TRIPOS>ATOM
      1 N          61.9378   87.7553   10.9091 N.3     1  UNL1       -0.2641
      2 C          62.6092   89.0895   11.0469 C.3     1  UNL1        0.0981
      3 C          62.5319   90.0870    9.9293 C.3     1  UNL1        0.0224
      4 C          63.2033   91.4213   10.0671 C.3     1  UNL1        0.0065
      5 C          63.9519   91.7581   11.3225 C.3     1  UNL1        0.0277
      6 C          64.0292   90.7606   12.4401 C.ar    1  UNL1       -0.0073
      7 C          64.7778   91.0974   13.6956 C.ar    1  UNL1       -0.0015
      8 C          64.8551   90.1000   14.8132 C.ar    1  UNL1        0.0203
      9 C          64.1837   88.7657   14.6754 C.ar    1  UNL1        0.0985
     10 N          63.4351   88.4289   13.4200 N.ar    1  UNL1       -0.2471
     11 C          63.3578   89.4264   12.3023 C.ar    1  UNL1        0.0695
     12 C          60.4504   87.6442   11.0675 C.3     1  UNL1        0.0989
     13 C          59.4890   87.4193    8.6643 C.2     1  UNL1       -0.0081
     14 C          59.5415   88.1367    9.9806 C.2     1  UNL1       -0.0117
     15 C          60.3453   86.2093    8.4350 C.3     1  UNL1        0.1171
     16 N          61.4070   84.0226    5.2979 N.am    1  UNL1       -0.3133
     17 C          61.4798   84.7562    6.6043 C.2     1  UNL1        0.2979
     18 O          62.7597   84.7703    7.3862 O.2     1  UNL1       -0.2531
     19 N          60.2726   85.4757    7.1287 N.am    1  UNL1       -0.2851
     20 H          62.1993   83.5503    4.9537 H       1  UNL1        0.1465
     21 H          60.5669   84.0133    4.7847 H       1  UNL1        0.1465
     22 H          59.4325   85.4665    6.6154 H       1  UNL1        0.1513
     23 C          62.7539   86.5321   10.6129 C.3     1  UNL1        0.0888
     24 C          62.7065   85.3556   11.5423 C.3     1  UNL1        0.0748
     25 C          62.7840   83.9621   10.9928 C.3     1  UNL1        0.0432
     26 C          62.7366   82.7856   11.9222 C.ar    1  UNL1       -0.0234
     27 C          62.8140   81.3921   11.3727 C.ar    1  UNL1       -0.0045
     28 C          62.7666   80.2157   12.3021 C.ar    1  UNL1       -0.0003
     29 C          62.6418   80.4329   13.7811 C.ar    1  UNL1       -0.0003
     30 C          62.5643   81.8264   14.3306 C.ar    1  UNL1       -0.0032
     31 C          62.6117   83.0028   13.4012 C.ar    1  UNL1       -0.0103
     32 C          62.5343   84.3964   13.9507 C.3     1  UNL1        0.0953
     33 N          62.5817   85.5728   13.0212 N.3     1  UNL1       -0.2934
     34 H          63.3812   86.1395   13.3041 H       1  UNL1        0.1236
@<TRIPOS>BOND
     1    16    17   am
     2    17    18    2
     3    17    19   am
     4    19    15    1
     5    15    13    1
     6    13    14    2
     7    14    12    1
     8    12     1    1
     9     1    23    1
    10    24    23    1
    11    24    25    1
    12    25    26    1
    13    26    27   ar
    14    27    28   ar
    15    28    29   ar
    16    29    30   ar
    17    30    31   ar
    18    31    32    1
    19    32    33    1
    20     2     1    1
    21     2     3    1
    22     3     4    1
    23     4     5    1
    24     5     6    1
    25     6     7   ar
    26     7     8   ar
    27     8     9   ar
    28     9    10   ar
    29    10    11   ar
    30    33    24    1
    31    11     2    1
    32    31    26   ar
    33    11     6   ar
    34    16    20    1
    35    16    21    1
    36    19    22    1
    37    33    34    1
@<TRIPOS>MOLECULE
*****
 34 37 0 0 0
SMALL
GASTEIGER

@<TRIPOS>ATOM
      1 N          61.2552   87.5315   10.6440 N.3     1  UNL1       -0.2641
      2 C          62.0473   86.3494   10.1695 C.3     1  UNL1        0.0981
      3 C          62.3806   86.2053    8.7141 C.3     1  UNL1        0.0224
      4 C          63.1728   85.0232    8.2396 C.3     1  UNL1        0.0065
      5 C          63.6316   83.9852    9.2204 C.3     1  UNL1        0.0277
      6 C          63.2982   84.1293   10.6757 C.ar    1  UNL1       -0.0073
      7 C          63.7570   83.0912   11.6566 C.ar    1  UNL1       -0.0015
      8 C          63.4237   83.2353   13.1119 C.ar    1  UNL1        0.0203
      9 C          62.6315   84.4174   13.5865 C.ar    1  UNL1        0.0985
     10 N          62.1727   85.4554   12.6057 N.ar    1  UNL1       -0.2471
     11 C          62.5061   85.3114   11.1502 C.ar    1  UNL1        0.0695
     12 C          59.9778   87.9049    9.9521 C.3     1  UNL1        0.0989
     13 C          59.0878   87.4374    7.5564 C.2     1  UNL1       -0.0081
     14 C          59.3637   86.9683    8.9542 C.2     1  UNL1       -0.0117
     15 C          59.4258   88.8430    7.1565 C.3     1  UNL1        0.1171
     16 N          57.9385   91.5165    4.6286 N.am    1  UNL1       -0.3133
     17 C          58.9249   90.7018    5.4118 C.2     1  UNL1        0.2979
     18 O          60.3964   90.9311    5.2335 O.2     1  UNL1       -0.2531
     19 N          58.4396   89.6577    6.3733 N.am    1  UNL1       -0.2851
     20 H          58.2570   92.2017    3.9975 H       1  UNL1        0.1465
     21 H          56.9726   91.3660    4.7456 H       1  UNL1        0.1465
     22 H          57.4737   89.5073    6.4903 H       1  UNL1        0.1513
     23 C          61.7404   88.3400   11.8105 C.3     1  UNL1        0.0888
     24 C          62.6243   89.5303   11.5822 C.3     1  UNL1        0.0748
     25 C          63.5353   90.0084   12.6737 C.3     1  UNL1        0.0432
     26 C          64.4192   91.1986   12.4454 C.ar    1  UNL1       -0.0234
     27 C          65.3302   91.6767   13.5370 C.ar    1  UNL1       -0.0045
     28 C          66.2141   92.8669   13.3086 C.ar    1  UNL1       -0.0003
     29 C          66.1870   93.5790   11.9887 C.ar    1  UNL1       -0.0003
     30 C          65.2760   93.1009   10.8971 C.ar    1  UNL1       -0.0032
     31 C          64.3922   91.9107   11.1255 C.ar    1  UNL1       -0.0103
     32 C          63.4811   91.4326   10.0339 C.3     1  UNL1        0.0953
     33 N          62.5973   90.2424   10.2622 N.3     1  UNL1       -0.2934
     34 H          62.8416   89.5534    9.5509 H       1  UNL1        0.1236
@<TRIPOS>BOND
     1    16    17   am
     2    17    18    2
     3    17    19   am
     4    19    15    1
     5    15    13    1
     6    13    14    2
     7    14    12    1
     8    12     1    1
     9     1    23    1
    10    24    23    1
    11    24    25    1
    12    25    26    1
    13    26    27   ar
    14    27    28   ar
    15    28    29   ar
    16    29    30   ar
    17    30    31   ar
    18    31    32    1
    19    32    33    1
    20     2     1    1
    21     2     3    1
    22     3     4    1
    23     4     5    1
    24     5     6    1
    25     6     7   ar
    26     7     8   ar
    27     8     9   ar
    28     9    10   ar
    29    10    11   ar
    30    33    24    1
    31    11     2    1
    32    31    26   ar
    33    11     6   ar
    34    16    20    1
    35    16    21    1
    36    19    22    1
    37    33    34    1
@<TRIPOS>MOLECULE
*****
 34 37 0 0 0
SMALL
GASTEIGER

@<TRIPOS>ATOM
      1 N          63.4658   90.0250   12.8912 N.3     1  UNL1       -0.2641
      2 C          64.2755   91.1902   12.4049 C.3     1  UNL1        0.0981
      3 C          64.2208   91.5908   10.9604 C.3     1  UNL1        0.0224
      4 C          65.0305   92.7560   10.4740 C.3     1  UNL1        0.0065
      5 C          65.8949   93.5208   11.4322 C.3     1  UNL1        0.0277
      6 C          65.9495   93.1202   12.8766 C.ar    1  UNL1       -0.0073
      7 C          66.8139   93.8850   13.8348 C.ar    1  UNL1       -0.0015
      8 C          66.8686   93.4844   15.2793 C.ar    1  UNL1        0.0203
      9 C          66.0589   92.3192   15.7656 C.ar    1  UNL1        0.0985
     10 N          65.1945   91.5544   14.8075 N.ar    1  UNL1       -0.2471
     11 C          65.1398   91.9550   13.3630 C.ar    1  UNL1        0.0695
     12 C          64.1225   88.9341   13.6841 C.3     1  UNL1        0.0989
     13 C          63.9338   87.3287   15.7181 C.2     1  UNL1       -0.0081
     14 C          63.6957   88.6738   15.0984 C.2     1  UNL1       -0.0117
     15 C          64.5986   86.2439   14.9236 C.3     1  UNL1        0.1171
     16 N          63.0322   82.6255   15.3752 N.am    1  UNL1       -0.3133
     17 C          63.1921   84.0600   14.9665 C.2     1  UNL1        0.2979
     18 O          62.1052   84.7447   14.1921 O.2     1  UNL1       -0.2531
     19 N          64.4388   84.8096   15.3323 N.am    1  UNL1       -0.2851
     20 H          62.2140   82.1335   15.1351 H       1  UNL1        0.1465
     21 H          63.7456   82.1761   15.8835 H       1  UNL1        0.1465
     22 H          65.1521   84.3601   15.8406 H       1  UNL1        0.1513
     23 C          61.9993   89.9506   12.5847 C.3     1  UNL1        0.0888
     24 C          61.5185   89.1542   11.4080 C.3     1  UNL1        0.0748
     25 C          62.3525   88.0280   10.8733 C.3     1  UNL1        0.0432
     26 C          61.8717   87.2316    9.6965 C.ar    1  UNL1       -0.0234
     27 C          62.7057   86.1054    9.1619 C.ar    1  UNL1       -0.0045
     28 C          62.2248   85.3091    7.9852 C.ar    1  UNL1       -0.0003
     29 C          60.9100   85.6391    7.3431 C.ar    1  UNL1       -0.0003
     30 C          60.0760   86.7653    7.8778 C.ar    1  UNL1       -0.0032
     31 C          60.5568   87.5616    9.0545 C.ar    1  UNL1       -0.0103
     32 C          59.7228   88.6879    9.5892 C.3     1  UNL1        0.0953
     33 N          60.2036   89.4842   10.7659 N.3     1  UNL1       -0.2934
     34 H          59.4917   89.3970   11.4912 H       1  UNL1        0.1236
@<TRIPOS>BOND
     1    16    17   am
     2    17    18    2
     3    17    19   am
     4    19    15    1
     5    15    13    1
     6    13    14    2
     7    14    12    1
     8    12     1    1
     9     1    23    1
    10    24    23    1
    11    24    25    1
    12    25    26    1
    13    26    27   ar
    14    27    28   ar
    15    28    29   ar
    16    29    30   ar
    17    30    31   ar
    18    31    32    1
    19    32    33    1
    20     2     1    1
    21     2     3    1
    22     3     4    1
    23     4     5    1
    24     5     6    1
    25     6     7   ar
    26     7     8   ar
    27     8     9   ar
    28     9    10   ar
    29    10    11   ar
    30    33    24    1
    31    11     2    1
    32    31    26   ar
    33    11     6   ar
    34    16    20    1
    35    16    21    1
    36    19    22    1
    37    33    34    1
@<TRIPOS>MOLECULE
*****
 34 37 0 0 0
SMALL
GASTEIGER

@<TRIPOS>ATOM
      1 N          62.4093   89.3839   12.3324 N.3     1  UNL1       -0.2641
      2 C          63.3103   90.1495   13.2554 C.3     1  UNL1        0.0981
      3 C          63.2907   89.8666   14.7283 C.3     1  UNL1        0.0224
      4 C          64.1917   90.6322   15.6512 C.3     1  UNL1        0.0065
      5 C          65.1125   91.6809   15.1013 C.3     1  UNL1        0.0277
      6 C          65.1322   91.9639   13.6284 C.ar    1  UNL1       -0.0073
      7 C          66.0529   93.0126   13.0783 C.ar    1  UNL1       -0.0015
      8 C          66.0726   93.2955   11.6054 C.ar    1  UNL1        0.0203
      9 C          65.1715   92.5299   10.6825 C.ar    1  UNL1        0.0985
     10 N          64.2508   91.4812   11.2324 N.ar    1  UNL1       -0.2471
     11 C          64.2311   91.1982   12.7054 C.ar    1  UNL1        0.0695
     12 C          60.9879   89.8218   12.1380 C.3     1  UNL1        0.0989
     13 C          60.0313   89.3684    9.7653 C.2     1  UNL1       -0.0081
     14 C          60.5357   90.3293   10.8008 C.2     1  UNL1       -0.0117
     15 C          59.9791   87.9000   10.0669 C.3     1  UNL1        0.1171
     16 N          60.3651   85.3892    7.0178 N.am    1  UNL1       -0.3133
     17 C          59.7622   86.3735    7.9758 C.2     1  UNL1        0.2979
     18 O          58.3396   86.8157    7.8006 O.2     1  UNL1       -0.2531
     19 N          60.5820   86.9157    9.1089 N.am    1  UNL1       -0.2851
     20 H          59.8271   85.0333    6.2741 H       1  UNL1        0.1465
     21 H          61.2988   85.0990    7.1328 H       1  UNL1        0.1465
     22 H          61.5157   86.6254    9.2239 H       1  UNL1        0.1513
     23 C          62.9296   88.1803   11.6040 C.3     1  UNL1        0.0888
     24 C          63.1219   86.8854   12.3364 C.3     1  UNL1        0.0748
     25 C          62.6988   85.5943   11.7009 C.3     1  UNL1        0.0432
     26 C          62.8912   84.2994   12.4332 C.ar    1  UNL1       -0.0234
     27 C          62.4681   83.0083   11.7977 C.ar    1  UNL1       -0.0045
     28 C          62.6605   81.7135   12.5301 C.ar    1  UNL1       -0.0003
     29 C          63.2759   81.7098   13.8980 C.ar    1  UNL1       -0.0003
     30 C          63.6990   83.0009   14.5336 C.ar    1  UNL1       -0.0032
     31 C          63.5066   84.2957   13.8012 C.ar    1  UNL1       -0.0103
     32 C          63.9297   85.5870   14.4367 C.3     1  UNL1        0.0953
     33 N          63.7373   86.8818   13.7043 N.3     1  UNL1       -0.2934
     34 H          64.6593   87.3085   13.6135 H       1  UNL1        0.1236
@<TRIPOS>BOND
     1    16    17   am
     2    17    18    2
     3    17    19   am
     4    19    15    1
     5    15    13    1
     6    13    14    2
     7    14    12    1
     8    12     1    1
     9     1    23    1
    10    24    23    1
    11    24    25    1
    12    25    26    1
    13    26    27   ar
    14    27    28   ar
    15    28    29   ar
    16    29    30   ar
    17    30    31   ar
    18    31    32    1
    19    32    33    1
    20     2     1    1
    21     2     3    1
    22     3     4    1
    23     4     5    1
    24     5     6    1
    25     6     7   ar
    26     7     8   ar
    27     8     9   ar
    28     9    10   ar
    29    10    11   ar
    30    33    24    1
    31    11     2    1
    32    31    26   ar
    33    11     6   ar
    34    16    20    1
    35    16    21    1
    36    19    22    1
    37    33    34    1
@<TRIPOS>MOLECULE
*****
 34 37 0 0 0
SMALL
GASTEIGER

@<TRIPOS>ATOM
      1 N          63.9259   90.0769   13.5483 N.3     1  UNL1       -0.2641
      2 C          64.8355   91.2321   13.8448 C.3     1  UNL1        0.0981
      3 C          65.3532   91.4411   15.2370 C.3     1  UNL1        0.0224
      4 C          66.2629   92.5964   15.5334 C.3     1  UNL1        0.0065
      5 C          66.6548   93.5427   14.4376 C.3     1  UNL1        0.0277
      6 C          66.1371   93.3338   13.0454 C.ar    1  UNL1       -0.0073
      7 C          66.5290   94.2802   11.9496 C.ar    1  UNL1       -0.0015
      8 C          66.0113   94.0713   10.5574 C.ar    1  UNL1        0.0203
      9 C          65.1016   92.9160   10.2609 C.ar    1  UNL1        0.0985
     10 N          64.7097   91.9696   11.3567 N.ar    1  UNL1       -0.2471
     11 C          65.2274   92.1785   12.7490 C.ar    1  UNL1        0.0695
     12 C          64.2576   88.7089   14.0666 C.3     1  UNL1        0.0989
     13 C          63.9953   86.8781   15.8913 C.2     1  UNL1       -0.0081
     14 C          63.7981   88.2925   15.4325 C.2     1  UNL1       -0.0117
     15 C          64.6519   85.8800   14.9843 C.3     1  UNL1        0.1171
     16 N          62.9595   82.2921   15.0979 N.am    1  UNL1       -0.3133
     17 C          63.1538   83.7609   14.8628 C.2     1  UNL1        0.2979
     18 O          62.0445   84.5789   14.2712 O.2     1  UNL1       -0.2531
     19 N          64.4575   84.4114   15.2194 N.am    1  UNL1       -0.2851
     20 H          62.1039   81.8651   14.8639 H       1  UNL1        0.1465
     21 H          63.6877   81.7552   15.4862 H       1  UNL1        0.1465
     22 H          65.1857   83.8745   15.6076 H       1  UNL1        0.1513
     23 C          62.6845   90.2895   12.7336 C.3     1  UNL1        0.0888
     24 C          62.2205   89.2267   11.7822 C.3     1  UNL1        0.0748
     25 C          61.3203   89.5859   10.6375 C.3     1  UNL1        0.0432
     26 C          60.8563   88.5230    9.6861 C.ar    1  UNL1       -0.0234
     27 C          59.9560   88.8822    8.5414 C.ar    1  UNL1       -0.0045
     28 C          59.4921   87.8194    7.5900 C.ar    1  UNL1       -0.0003
     29 C          59.9285   86.3973    7.7834 C.ar    1  UNL1       -0.0003
     30 C          60.8287   86.0381    8.9281 C.ar    1  UNL1       -0.0032
     31 C          61.2926   87.1010    9.8794 C.ar    1  UNL1       -0.0103
     32 C          62.1930   86.7418   11.0243 C.3     1  UNL1        0.0953
     33 N          62.6569   87.8046   11.9756 N.3     1  UNL1       -0.2934
     34 H          63.6764   87.8027   11.9448 H       1  UNL1        0.1236
@<TRIPOS>BOND
     1    16    17   am
     2    17    18    2
     3    17    19   am
     4    19    15    1
     5    15    13    1
     6    13    14    2
     7    14    12    1
     8    12     1    1
     9     1    23    1
    10    24    23    1
    11    24    25    1
    12    25    26    1
    13    26    27   ar
    14    27    28   ar
    15    28    29   ar
    16    29    30   ar
    17    30    31   ar
    18    31    32    1
    19    32    33    1
    20     2     1    1
    21     2     3    1
    22     3     4    1
    23     4     5    1
    24     5     6    1
    25     6     7   ar
    26     7     8   ar
    27     8     9   ar
    28     9    10   ar
    29    10    11   ar
    30    33    24    1
    31    11     2    1
    32    31    26   ar
    33    11     6   ar
    34    16    20    1
    35    16    21    1
    36    19    22    1
    37    33    34    1
@<TRIPOS>MOLECULE
*****
 34 37 0 0 0
SMALL
GASTEIGER

@<TRIPOS>ATOM
      1 N          61.9791   88.7106   11.6590 N.3     1  UNL1       -0.2641
      2 C          62.9497   89.8403   11.8374 C.3     1  UNL1        0.0981
      3 C          63.4229   90.6177   10.6451 C.3     1  UNL1        0.0224
      4 C          64.3935   91.7474   10.8234 C.3     1  UNL1        0.0065
      5 C          64.8908   92.0997   12.1940 C.3     1  UNL1        0.0277
      6 C          64.4176   91.3222   13.3863 C.ar    1  UNL1       -0.0073
      7 C          64.9149   91.6744   14.7570 C.ar    1  UNL1       -0.0015
      8 C          64.4417   90.8969   15.9492 C.ar    1  UNL1        0.0203
      9 C          63.4711   89.7672   15.7709 C.ar    1  UNL1        0.0985
     10 N          62.9738   89.4150   14.4003 N.ar    1  UNL1       -0.2471
     11 C          63.4470   90.1925   13.2080 C.ar    1  UNL1        0.0695
     12 C          60.5662   88.8523   12.1422 C.3     1  UNL1        0.0989
     13 C          59.6475   90.4232   10.2879 C.2     1  UNL1       -0.0081
     14 C          59.7504   90.0436   11.7354 C.2     1  UNL1       -0.0117
     15 C          60.3605   89.6117    9.2472 C.3     1  UNL1        0.1171
     16 N          58.7884   86.4812    7.3820 N.am    1  UNL1       -0.3133
     17 C          59.2284   87.8863    7.6687 C.2     1  UNL1        0.2979
     18 O          58.9763   88.9710    6.6639 O.2     1  UNL1       -0.2531
     19 N          59.9205   88.2066    8.9604 N.am    1  UNL1       -0.2851
     20 H          58.3342   86.2710    6.5342 H       1  UNL1        0.1465
     21 H          58.9539   85.7693    8.0415 H       1  UNL1        0.1465
     22 H          60.0860   87.4947    9.6199 H       1  UNL1        0.1513
     23 C          62.4215   87.4391   10.9975 C.3     1  UNL1        0.0888
     24 C          62.7570   86.2376   11.8305 C.3     1  UNL1        0.0748
     25 C          62.4947   84.8596   11.2992 C.3     1  UNL1        0.0432
     26 C          62.8301   83.6581   12.1322 C.ar    1  UNL1       -0.0234
     27 C          62.5678   82.2801   11.6008 C.ar    1  UNL1       -0.0045
     28 C          62.9033   81.0787   12.4338 C.ar    1  UNL1       -0.0003
     29 C          63.5010   81.2552   13.7982 C.ar    1  UNL1       -0.0003
     30 C          63.7633   82.6331   14.3296 C.ar    1  UNL1       -0.0032
     31 C          63.4278   83.8346   13.4966 C.ar    1  UNL1       -0.0103
     32 C          63.6901   85.2126   14.0280 C.3     1  UNL1        0.0953
     33 N          63.3547   86.4141   13.1949 N.3     1  UNL1       -0.2934
     34 H          64.2211   86.9379   13.0713 H       1  UNL1        0.1236
@<TRIPOS>BOND
     1    16    17   am
     2    17    18    2
     3    17    19   am
     4    19    15    1
     5    15    13    1
     6    13    14    2
     7    14    12    1
     8    12     1    1
     9     1    23    1
    10    24    23    1
    11    24    25    1
    12    25    26    1
    13    26    27   ar
    14    27    28   ar
    15    28    29   ar
    16    29    30   ar
    17    30    31   ar
    18    31    32    1
    19    32    33    1
    20     2     1    1
    21     2     3    1
    22     3     4    1
    23     4     5    1
    24     5     6    1
    25     6     7   ar
    26     7     8   ar
    27     8     9   ar
    28     9    10   ar
    29    10    11   ar
    30    33    24    1
    31    11     2    1
    32    31    26   ar
    33    11     6   ar
    34    16    20    1
    35    16    21    1
    36    19    22    1
    37    33    34    1
@<TRIPOS>MOLECULE
*****
 34 37 0 0 0
SMALL
GASTEIGER

@<TRIPOS>ATOM
      1 N          63.0262   88.7910   12.5110 N.3     1  UNL1       -0.2641
      2 C          63.5405   87.5877   13.2442 C.3     1  UNL1        0.0981
      3 C          64.3155   87.7596   14.5169 C.3     1  UNL1        0.0224
      4 C          64.8297   86.5563   15.2501 C.3     1  UNL1        0.0065
      5 C          64.5689   85.1812   14.7107 C.3     1  UNL1        0.0277
      6 C          63.7939   85.0094   13.4381 C.ar    1  UNL1       -0.0073
      7 C          63.5330   83.6342   12.8986 C.ar    1  UNL1       -0.0015
      8 C          62.7580   83.4624   11.6259 C.ar    1  UNL1        0.0203
      9 C          62.2437   84.6657   10.8927 C.ar    1  UNL1        0.0985
     10 N          62.5046   86.0408   11.4321 N.ar    1  UNL1       -0.2471
     11 C          63.2797   86.2126   12.7048 C.ar    1  UNL1        0.0695
     12 C          62.8327   88.7375   11.0245 C.3     1  UNL1        0.0989
     13 C          60.6516   89.6479    9.9457 C.2     1  UNL1       -0.0081
     14 C          62.0905   89.8372   10.3247 C.2     1  UNL1       -0.0117
     15 C          59.9548   88.3589   10.2666 C.3     1  UNL1        0.1171
     16 N          59.8032   85.6652    7.3560 N.am    1  UNL1       -0.3133
     17 C          59.5159   86.8949    8.1656 C.2     1  UNL1        0.2979
     18 O          58.5023   87.8901    7.6839 O.2     1  UNL1       -0.2531
     19 N          60.2421   87.1293    9.4570 N.am    1  UNL1       -0.2851
     20 H          59.3266   85.5114    6.5084 H       1  UNL1        0.1465
     21 H          60.4685   85.0120    7.6722 H       1  UNL1        0.1465
     22 H          60.9074   86.4761    9.7732 H       1  UNL1        0.1513
     23 C          62.7055   90.0479   13.2642 C.3     1  UNL1        0.0888
     24 C          63.7798   90.7536   14.0376 C.3     1  UNL1        0.0748
     25 C          65.1411   90.9361   13.4348 C.3     1  UNL1        0.0432
     26 C          66.2153   91.6419   14.2082 C.ar    1  UNL1       -0.0234
     27 C          67.5767   91.8243   13.6055 C.ar    1  UNL1       -0.0045
     28 C          68.6508   92.5300   14.3788 C.ar    1  UNL1       -0.0003
     29 C          68.3636   93.0533   15.7550 C.ar    1  UNL1       -0.0003
     30 C          67.0022   92.8708   16.3577 C.ar    1  UNL1       -0.0032
     31 C          65.9281   92.1651   15.5843 C.ar    1  UNL1       -0.0103
     32 C          64.5667   91.9826   16.1871 C.3     1  UNL1        0.0953
     33 N          63.4925   91.2769   15.4137 N.3     1  UNL1       -0.2934
     34 H          62.7159   91.9320   15.3235 H       1  UNL1        0.1236
@<TRIPOS>BOND
     1    16    17   am
     2    17    18    2
     3    17    19   am
     4    19    15    1
     5    15    13    1
     6    13    14    2
     7    14    12    1
     8    12     1    1
     9     1    23    1
    10    24    23    1
    11    24    25    1
    12    25    26    1
    13    26    27   ar
    14    27    28   ar
    15    28    29   ar
    16    29    30   ar
    17    30    31   ar
    18    31    32    1
    19    32    33    1
    20     2     1    1
    21     2     3    1
    22     3     4    1
    23     4     5    1
    24     5     6    1
    25     6     7   ar
    26     7     8   ar
    27     8     9   ar
    28     9    10   ar
    29    10    11   ar
    30    33    24    1
    31    11     2    1
    32    31    26   ar
    33    11     6   ar
    34    16    20    1
    35    16    21    1
    36    19    22    1
    37    33    34    1
@<TRIPOS>MOLECULE
*****
 34 37 0 0 0
SMALL
GASTEIGER

@<TRIPOS>ATOM
      1 N          63.1593   88.8549   12.6813 N.3     1  UNL1       -0.2641
      2 C          63.6056   87.5808   13.3349 C.3     1  UNL1        0.0981
      3 C          64.3867   87.6279   14.6146 C.3     1  UNL1        0.0224
      4 C          64.8329   86.3537   15.2683 C.3     1  UNL1        0.0065
      5 C          64.4981   85.0324   14.6423 C.3     1  UNL1        0.0277
      6 C          63.7169   84.9852   13.3627 C.ar    1  UNL1       -0.0073
      7 C          63.3820   83.6639   12.7366 C.ar    1  UNL1       -0.0015
      8 C          62.6009   83.6167   11.4570 C.ar    1  UNL1        0.0203
      9 C          62.1547   84.8909   10.8033 C.ar    1  UNL1        0.0985
     10 N          62.4895   86.2122   11.4292 N.ar    1  UNL1       -0.2471
     11 C          63.2707   86.2594   12.7090 C.ar    1  UNL1        0.0695
     12 C          63.0412   88.9303   11.1878 C.3     1  UNL1        0.0989
     13 C          61.0017   90.0010    9.9860 C.2     1  UNL1       -0.0081
     14 C          62.3882   90.1186   10.5462 C.2     1  UNL1       -0.0117
     15 C          60.2682   88.6951   10.0675 C.3     1  UNL1        0.1171
     16 N          58.5933   88.5676   13.6631 N.am    1  UNL1       -0.3133
     17 C          59.0600   89.0841   12.3344 C.2     1  UNL1        0.2979
     18 O          58.7852   90.5061   11.9439 O.2     1  UNL1       -0.2531
     19 N          59.8015   88.1787   11.3961 N.am    1  UNL1       -0.2851
     20 H          58.1066   89.1619   14.2789 H       1  UNL1        0.1465
     21 H          58.7737   87.6343   13.9194 H       1  UNL1        0.1465
     22 H          59.9819   87.2454   11.6524 H       1  UNL1        0.1513
     23 C          62.8312   90.0538   13.5210 C.3     1  UNL1        0.0888
     24 C          63.9242   90.7880   14.2396 C.3     1  UNL1        0.0748
     25 C          65.2693   90.9484   13.5954 C.3     1  UNL1        0.0432
     26 C          66.3623   91.6826   14.3140 C.ar    1  UNL1       -0.0234
     27 C          67.7074   91.8430   13.6699 C.ar    1  UNL1       -0.0045
     28 C          68.8003   92.5772   14.3885 C.ar    1  UNL1       -0.0003
     29 C          68.5481   93.1510   15.7513 C.ar    1  UNL1       -0.0003
     30 C          67.2031   92.9906   16.3954 C.ar    1  UNL1       -0.0032
     31 C          66.1102   92.2564   15.6768 C.ar    1  UNL1       -0.0103
     32 C          64.7650   92.0959   16.3210 C.3     1  UNL1        0.0953
     33 N          63.6721   91.3618   15.6024 N.3     1  UNL1       -0.2934
     34 H          62.8926   92.0128   15.5081 H       1  UNL1        0.1236
@<TRIPOS>BOND
     1    16    17   am
     2    17    18    2
     3    17    19   am
     4    19    15    1
     5    15    13    1
     6    13    14    2
     7    14    12    1
     8    12     1    1
     9     1    23    1
    10    24    23    1
    11    24    25    1
    12    25    26    1
    13    26    27   ar
    14    27    28   ar
    15    28    29   ar
    16    29    30   ar
    17    30    31   ar
    18    31    32    1
    19    32    33    1
    20     2     1    1
    21     2     3    1
    22     3     4    1
    23     4     5    1
    24     5     6    1
    25     6     7   ar
    26     7     8   ar
    27     8     9   ar
    28     9    10   ar
    29    10    11   ar
    30    33    24    1
    31    11     2    1
    32    31    26   ar
    33    11     6   ar
    34    16    20    1
    35    16    21    1
    36    19    22    1
    37    33    34    1
@<TRIPOS>MOLECULE
*****
 34 37 0 0 0
SMALL
GASTEIGER

@<TRIPOS>ATOM
      1 N          63.3613   89.0101   14.0007 N.3     1  UNL1       -0.2641
      2 C          63.2885   89.7382   12.6913 C.3     1  UNL1        0.0981
      3 C          64.1754   90.9217   12.4410 C.3     1  UNL1        0.0224
      4 C          64.1027   91.6498   11.1316 C.3     1  UNL1        0.0065
      5 C          63.1431   91.1944   10.0725 C.3     1  UNL1        0.0277
      6 C          62.2562   90.0110   10.3228 C.ar    1  UNL1       -0.0073
      7 C          61.2965   89.5555    9.2637 C.ar    1  UNL1       -0.0015
      8 C          60.4096   88.3720    9.5140 C.ar    1  UNL1        0.0203
      9 C          60.4823   87.6439   10.8234 C.ar    1  UNL1        0.0985
     10 N          61.4420   88.0993   11.8825 N.ar    1  UNL1       -0.2471
     11 C          62.3289   89.2828   11.6322 C.ar    1  UNL1        0.0695
     12 C          62.4911   89.4368   15.1455 C.3     1  UNL1        0.0989
     13 C          63.8688   90.5855   17.0250 C.2     1  UNL1       -0.0081
     14 C          63.0359   89.4348   16.5431 C.2     1  UNL1       -0.0117
     15 C          64.1570   91.7381   16.1094 C.3     1  UNL1        0.1171
     16 N          67.6394   93.6414   16.1241 N.am    1  UNL1       -0.3133
     17 C          66.5643   92.6557   15.7737 C.2     1  UNL1        0.2979
     18 O          66.8214   91.6022   14.7374 O.2     1  UNL1       -0.2531
     19 N          65.2320   92.7237   16.4597 N.am    1  UNL1       -0.2851
     20 H          68.5138   93.5968   15.6739 H       1  UNL1        0.1465
     21 H          67.4706   94.3328   16.8043 H       1  UNL1        0.1465
     22 H          65.0633   93.4151   17.1399 H       1  UNL1        0.1513
     23 C          64.3042   87.8552   14.1653 C.3     1  UNL1        0.0888
     24 C          63.7689   86.4568   14.2552 C.3     1  UNL1        0.0748
     25 C          63.6743   85.6093   13.0212 C.3     1  UNL1        0.0432
     26 C          63.1390   84.2109   13.1111 C.ar    1  UNL1       -0.0234
     27 C          63.0443   83.3633   11.8771 C.ar    1  UNL1       -0.0045
     28 C          62.5091   81.9650   11.9670 C.ar    1  UNL1       -0.0003
     29 C          62.0685   81.4142   13.2908 C.ar    1  UNL1       -0.0003
     30 C          62.1632   82.2617   14.5248 C.ar    1  UNL1       -0.0032
     31 C          62.6984   83.6601   14.4349 C.ar    1  UNL1       -0.0103
     32 C          62.7931   84.5077   15.6689 C.3     1  UNL1        0.0953
     33 N          63.3283   85.9060   15.5790 N.3     1  UNL1       -0.2934
     34 H          64.1356   85.9529   16.2008 H       1  UNL1        0.1236
@<TRIPOS>BOND
     1    16    17   am
     2    17    18    2
     3    17    19   am
     4    19    15    1
     5    15    13    1
     6    13    14    2
     7    14    12    1
     8    12     1    1
     9     1    23    1
    10    24    23    1
    11    24    25    1
    12    25    26    1
    13    26    27   ar
    14    27    28   ar
    15    28    29   ar
    16    29    30   ar
    17    30    31   ar
    18    31    32    1
    19    32    33    1
    20     2     1    1
    21     2     3    1
    22     3     4    1
    23     4     5    1
    24     5     6    1
    25     6     7   ar
    26     7     8   ar
    27     8     9   ar
    28     9    10   ar
    29    10    11   ar
    30    33    24    1
    31    11     2    1
    32    31    26   ar
    33    11     6   ar
    34    16    20    1
    35    16    21    1
    36    19    22    1
    37    33    34    1
