@<TRIPOS>MOLECULE
*****
 24 27 0 0 0
SMALL
GASTEIGER

@<TRIPOS>ATOM
      1 O          65.6957   94.0288   11.4365 O.2     1  UNL1       -0.2699
      2 C          65.5610   92.7748   12.2485 C.2     1  UNL1        0.2494
      3 N          64.6249   91.6902   11.8037 N.am    1  UNL1       -0.2670
      4 C          63.8237   91.8598   10.5471 C.3     1  UNL1        0.1186
      5 C          62.8877   90.7753   10.1024 C.3     1  UNL1        0.1302
      6 N          62.7530   89.5213   10.9143 N.ar    1  UNL1       -0.2944
      7 C          63.5543   89.3517   12.1709 C.ar    1  UNL1        0.1636
      8 N          63.2139   88.0152   12.7609 N.ar    1  UNL1       -0.1315
      9 N          62.2023   87.3588   11.8688 N.ar    1  UNL1       -0.1274
     10 C          61.9174   88.2895   10.7276 C.ar    1  UNL1        0.1840
     11 C          64.4902   90.4362   12.6156 C.3     1  UNL1        0.1599
     12 C          66.3622   92.6052   13.5051 C.ar    1  UNL1        0.0537
     13 C          65.7415   92.9070   14.8369 C.ar    1  UNL1        0.0068
     14 C          66.5429   92.7374   16.0935 C.ar    1  UNL1        0.0298
     15 C          67.9649   92.2661   16.0184 C.ar    1  UNL1        0.1401
     16 F          68.7661   92.0965   17.2750 F       1  UNL1       -0.2042
     17 C          68.5856   91.9642   14.6866 C.ar    1  UNL1        0.0298
     18 C          67.7843   92.1338   13.4300 C.ar    1  UNL1        0.0068
     19 C          60.9643   88.0336    9.5979 C.ar    1  UNL1        0.1171
     20 C          60.6096   86.6259    9.2203 C.ar    1  UNL1        0.0223
     21 C          59.6565   86.3701    8.0906 C.ar    1  UNL1        0.0032
     22 C          59.0582   87.5218    7.3387 C.ar    1  UNL1        0.0207
     23 C          59.4129   88.9295    7.7164 C.ar    1  UNL1        0.0989
     24 N          60.3659   89.1853    8.8460 N.ar    1  UNL1       -0.2407
@<TRIPOS>BOND
     1     1     2    2
     2     2    12    1
     3    12    13   ar
     4    13    14   ar
     5    14    15   ar
     6    15    16    1
     7    15    17   ar
     8    17    18   ar
     9     2     3   am
    10     3     4    1
    11     4     5    1
    12     5     6    1
    13     6     7   ar
    14     7     8   ar
    15     8     9   ar
    16     9    10   ar
    17    10    19    1
    18    19    20   ar
    19    20    21   ar
    20    21    22   ar
    21    22    23   ar
    22    23    24   ar
    23     7    11    1
    24    18    12   ar
    25    11     3    1
    26    10     6   ar
    27    24    19   ar
@<TRIPOS>MOLECULE
*****
 24 27 0 0 0
SMALL
GASTEIGER

@<TRIPOS>ATOM
      1 O          61.5204   86.6321   11.9832 O.2     1  UNL1       -0.2699
      2 C          61.7356   87.8746   11.1708 C.2     1  UNL1        0.2494
      3 N          62.7190   88.9100   11.6301 N.am    1  UNL1       -0.2670
      4 C          63.4873   88.7029   12.9016 C.3     1  UNL1        0.1186
      5 C          64.4707   89.7383   13.3608 C.3     1  UNL1        0.1302
      6 N          64.6858   90.9807   12.5484 N.ar    1  UNL1       -0.2944
      7 C          63.9176   91.1879   11.2769 C.ar    1  UNL1        0.1636
      8 N          64.3384   92.5026   10.6901 N.ar    1  UNL1       -0.1315
      9 N          65.3667   93.1081   11.5990 N.ar    1  UNL1       -0.1274
     10 C          65.5814   92.1675   12.7475 C.ar    1  UNL1        0.1840
     11 C          62.9342   90.1525   10.8177 C.3     1  UNL1        0.1599
     12 C          60.9674   88.0817    9.8993 C.ar    1  UNL1        0.0537
     13 C          60.5597   89.4649    9.4861 C.ar    1  UNL1        0.0068
     14 C          59.7915   89.6720    8.2145 C.ar    1  UNL1        0.0298
     15 C          59.4309   88.4959    7.3561 C.ar    1  UNL1        0.1401
     16 F          58.6627   88.7030    6.0845 F       1  UNL1       -0.2042
     17 C          59.8385   87.1128    7.7692 C.ar    1  UNL1        0.0298
     18 C          60.6067   86.9057    9.0408 C.ar    1  UNL1        0.0068
     19 C          66.5259   92.3769   13.8939 C.ar    1  UNL1        0.1171
     20 C          65.9899   92.5721   15.2812 C.ar    1  UNL1        0.0223
     21 C          66.9345   92.7815   16.4274 C.ar    1  UNL1        0.0032
     22 C          68.4149   92.7957   16.1865 C.ar    1  UNL1        0.0207
     23 C          68.9509   92.6005   14.7992 C.ar    1  UNL1        0.0989
     24 N          68.0063   92.3911   13.6529 N.ar    1  UNL1       -0.2407
@<TRIPOS>BOND
     1     1     2    2
     2     2    12    1
     3    12    13   ar
     4    13    14   ar
     5    14    15   ar
     6    15    16    1
     7    15    17   ar
     8    17    18   ar
     9     2     3   am
    10     3     4    1
    11     4     5    1
    12     5     6    1
    13     6     7   ar
    14     7     8   ar
    15     8     9   ar
    16     9    10   ar
    17    10    19    1
    18    19    20   ar
    19    20    21   ar
    20    21    22   ar
    21    22    23   ar
    22    23    24   ar
    23     7    11    1
    24    18    12   ar
    25    11     3    1
    26    10     6   ar
    27    24    19   ar
@<TRIPOS>MOLECULE
*****
 24 27 0 0 0
SMALL
GASTEIGER

@<TRIPOS>ATOM
      1 O          62.4913   90.1276   10.9779 O.2     1  UNL1       -0.2699
      2 C          63.3624   89.7193   12.1288 C.2     1  UNL1        0.2494
      3 N          63.3965   88.2867   12.5721 N.am    1  UNL1       -0.2670
      4 C          62.5596   87.2625   11.8647 C.3     1  UNL1        0.1186
      5 C          62.5938   85.8299   12.3080 C.3     1  UNL1        0.1302
      6 N          63.4648   85.4216   13.4589 N.ar    1  UNL1       -0.2944
      7 C          64.3017   86.4458   14.1664 C.ar    1  UNL1        0.1636
      8 N          65.0574   85.7514   15.2604 N.ar    1  UNL1       -0.1315
      9 N          64.6875   84.2981   15.2290 N.ar    1  UNL1       -0.1274
     10 C          63.7032   84.0942   14.1157 C.ar    1  UNL1        0.1840
     11 C          64.2676   87.8783   13.7230 C.3     1  UNL1        0.1599
     12 C          64.1993   90.7435   12.8362 C.ar    1  UNL1        0.0537
     13 C          64.3987   90.6538   14.3202 C.ar    1  UNL1        0.0068
     14 C          65.2357   91.6781   15.0277 C.ar    1  UNL1        0.0298
     15 C          65.8732   92.7919   14.2512 C.ar    1  UNL1        0.1401
     16 F          66.7101   93.8161   14.9587 F       1  UNL1       -0.2042
     17 C          65.6737   92.8815   12.7672 C.ar    1  UNL1        0.0298
     18 C          64.8368   91.8574   12.0597 C.ar    1  UNL1        0.0068
     19 C          63.0688   82.7917   13.7272 C.ar    1  UNL1        0.1171
     20 C          63.5133   82.0827   12.4823 C.ar    1  UNL1        0.0223
     21 C          62.8788   80.7802   12.0939 C.ar    1  UNL1        0.0032
     22 C          61.7998   80.1867   12.9504 C.ar    1  UNL1        0.0207
     23 C          61.3553   80.8957   14.1953 C.ar    1  UNL1        0.0989
     24 N          61.9898   82.1982   14.5837 N.ar    1  UNL1       -0.2407
@<TRIPOS>BOND
     1     1     2    2
     2     2    12    1
     3    12    13   ar
     4    13    14   ar
     5    14    15   ar
     6    15    16    1
     7    15    17   ar
     8    17    18   ar
     9     2     3   am
    10     3     4    1
    11     4     5    1
    12     5     6    1
    13     6     7   ar
    14     7     8   ar
    15     8     9   ar
    16     9    10   ar
    17    10    19    1
    18    19    20   ar
    19    20    21   ar
    20    21    22   ar
    21    22    23   ar
    22    23    24   ar
    23     7    11    1
    24    18    12   ar
    25    11     3    1
    26    10     6   ar
    27    24    19   ar
@<TRIPOS>MOLECULE
*****
 24 27 0 0 0
SMALL
GASTEIGER

@<TRIPOS>ATOM
      1 O          61.6267   96.6146    1.0750 O.2     1  UNL1       -0.2699
      2 C          61.0201   95.2471    0.9662 C.2     1  UNL1        0.2494
      3 N          59.7096   95.0619    0.2602 N.am    1  UNL1       -0.2670
      4 C          59.0058   96.2443   -0.3370 C.3     1  UNL1        0.1186
      5 C          57.6953   96.0591   -1.0429 C.3     1  UNL1        0.1302
      6 N          57.0887   94.6916   -1.1517 N.ar    1  UNL1       -0.2944
      7 C          57.7925   93.5092   -0.5546 C.ar    1  UNL1        0.1636
      8 N          56.9574   92.2913   -0.8175 N.ar    1  UNL1       -0.1315
      9 N          55.7374   92.7209   -1.5771 N.ar    1  UNL1       -0.1274
     10 C          55.8185   94.2044   -1.7837 C.ar    1  UNL1        0.1840
     11 C          59.1030   93.6944    0.1513 C.3     1  UNL1        0.1599
     12 C          61.7239   94.0647    1.5633 C.ar    1  UNL1        0.0537
     13 C          61.0232   93.2070    2.5749 C.ar    1  UNL1        0.0068
     14 C          61.7271   92.0246    3.1721 C.ar    1  UNL1        0.0298
     15 C          63.1316   91.6999    2.7576 C.ar    1  UNL1        0.1401
     16 F          63.8355   90.5175    3.3547 F       1  UNL1       -0.2042
     17 C          63.8323   92.5576    1.7459 C.ar    1  UNL1        0.0298
     18 C          63.1285   93.7399    1.1488 C.ar    1  UNL1        0.0068
     19 C          54.8071   95.0519   -2.4970 C.ar    1  UNL1        0.1171
     20 C          53.5637   95.4951   -1.7845 C.ar    1  UNL1        0.0223
     21 C          52.5524   96.3425   -2.4979 C.ar    1  UNL1        0.0032
     22 C          52.7844   96.7469   -3.9236 C.ar    1  UNL1        0.0207
     23 C          54.0278   96.3037   -4.6360 C.ar    1  UNL1        0.0989
     24 N          55.0391   95.4562   -3.9227 N.ar    1  UNL1       -0.2407
@<TRIPOS>BOND
     1     1     2    2
     2     2    12    1
     3    12    13   ar
     4    13    14   ar
     5    14    15   ar
     6    15    16    1
     7    15    17   ar
     8    17    18   ar
     9     2     3   am
    10     3     4    1
    11     4     5    1
    12     5     6    1
    13     6     7   ar
    14     7     8   ar
    15     8     9   ar
    16     9    10   ar
    17    10    19    1
    18    19    20   ar
    19    20    21   ar
    20    21    22   ar
    21    22    23   ar
    22    23    24   ar
    23     7    11    1
    24    18    12   ar
    25    11     3    1
    26    10     6   ar
    27    24    19   ar
@<TRIPOS>MOLECULE
*****
 24 27 0 0 0
SMALL
GASTEIGER

@<TRIPOS>ATOM
      1 O          64.8157   82.2758   15.3997 O.2     1  UNL1       -0.2699
      2 C          64.2621   82.9721   14.1920 C.2     1  UNL1        0.2494
      3 N          64.1813   84.4697   14.1610 N.am    1  UNL1       -0.2670
      4 C          64.6542   85.2708   15.3376 C.3     1  UNL1        0.1186
      5 C          64.5734   86.7682   15.3066 C.3     1  UNL1        0.1302
      6 N          64.0197   87.4646   14.0989 N.ar    1  UNL1       -0.2944
      7 C          63.5469   86.6635   12.9222 C.ar    1  UNL1        0.1636
      8 N          63.0524   87.6206   11.8785 N.ar    1  UNL1       -0.1315
      9 N          63.2197   89.0133   12.4101 N.ar    1  UNL1       -0.1274
     10 C          63.8175   88.9169   13.7824 C.ar    1  UNL1        0.1840
     11 C          63.6277   85.1661   12.9533 C.3     1  UNL1        0.1599
     12 C          63.7892   82.1710   13.0153 C.ar    1  UNL1        0.0537
     13 C          62.9661   80.9357   13.2310 C.ar    1  UNL1        0.0068
     14 C          62.4933   80.1346   12.0542 C.ar    1  UNL1        0.0298
     15 C          62.8435   80.5688   10.6618 C.ar    1  UNL1        0.1401
     16 F          62.3707   79.7677    9.4852 F       1  UNL1       -0.2042
     17 C          63.6666   81.8041   10.4462 C.ar    1  UNL1        0.0298
     18 C          64.1395   82.6052   11.6228 C.ar    1  UNL1        0.0068
     19 C          64.1541   90.0702   14.6805 C.ar    1  UNL1        0.1171
     20 C          65.3535   90.9225   14.3892 C.ar    1  UNL1        0.0223
     21 C          65.6900   92.0758   15.2873 C.ar    1  UNL1        0.0032
     22 C          64.8271   92.3768   16.4768 C.ar    1  UNL1        0.0207
     23 C          63.6276   91.5244   16.7681 C.ar    1  UNL1        0.0989
     24 N          63.2911   90.3712   15.8699 N.ar    1  UNL1       -0.2407
@<TRIPOS>BOND
     1     1     2    2
     2     2    12    1
     3    12    13   ar
     4    13    14   ar
     5    14    15   ar
     6    15    16    1
     7    15    17   ar
     8    17    18   ar
     9     2     3   am
    10     3     4    1
    11     4     5    1
    12     5     6    1
    13     6     7   ar
    14     7     8   ar
    15     8     9   ar
    16     9    10   ar
    17    10    19    1
    18    19    20   ar
    19    20    21   ar
    20    21    22   ar
    21    22    23   ar
    22    23    24   ar
    23     7    11    1
    24    18    12   ar
    25    11     3    1
    26    10     6   ar
    27    24    19   ar
@<TRIPOS>MOLECULE
*****
 24 27 0 0 0
SMALL
GASTEIGER

@<TRIPOS>ATOM
      1 O          59.8750   93.8204   -3.8822 O.2     1  UNL1       -0.2699
      2 C          61.1386   93.8933   -3.0773 C.2     1  UNL1        0.2494
      3 N          61.1292   93.5015   -1.6294 N.am    1  UNL1       -0.2670
      4 C          59.8562   93.0368   -0.9864 C.3     1  UNL1        0.1186
      5 C          59.8468   92.6449    0.4614 C.3     1  UNL1        0.1302
      6 N          61.1104   92.7178    1.2664 N.ar    1  UNL1       -0.2944
      7 C          62.3835   93.1825    0.6234 C.ar    1  UNL1        0.1636
      8 N          63.4655   93.1510    1.6617 N.ar    1  UNL1       -0.1315
      9 N          62.8612   92.6667    2.9464 N.ar    1  UNL1       -0.1274
     10 C          61.4057   92.3990    2.7021 C.ar    1  UNL1        0.1840
     11 C          62.3928   93.5743   -0.8244 C.3     1  UNL1        0.1599
     12 C          62.4116   94.3580   -3.7202 C.ar    1  UNL1        0.0537
     13 C          62.7343   95.8220   -3.7730 C.ar    1  UNL1        0.0068
     14 C          64.0074   96.2866   -4.4160 C.ar    1  UNL1        0.0298
     15 C          64.9577   95.2874   -5.0062 C.ar    1  UNL1        0.1401
     16 F          66.2308   95.7521   -5.6491 F       1  UNL1       -0.2042
     17 C          64.6350   93.8235   -4.9534 C.ar    1  UNL1        0.0298
     18 C          63.3620   93.3588   -4.3105 C.ar    1  UNL1        0.0068
     19 C          60.4187   91.9002    3.7155 C.ar    1  UNL1        0.1171
     20 C          60.8413   90.8885    4.7392 C.ar    1  UNL1        0.0223
     21 C          59.8543   90.3897    5.7525 C.ar    1  UNL1        0.0032
     22 C          58.4447   90.9025    5.7422 C.ar    1  UNL1        0.0207
     23 C          58.0221   91.9142    4.7185 C.ar    1  UNL1        0.0989
     24 N          59.0092   92.4130    3.7052 N.ar    1  UNL1       -0.2407
@<TRIPOS>BOND
     1     1     2    2
     2     2    12    1
     3    12    13   ar
     4    13    14   ar
     5    14    15   ar
     6    15    16    1
     7    15    17   ar
     8    17    18   ar
     9     2     3   am
    10     3     4    1
    11     4     5    1
    12     5     6    1
    13     6     7   ar
    14     7     8   ar
    15     8     9   ar
    16     9    10   ar
    17    10    19    1
    18    19    20   ar
    19    20    21   ar
    20    21    22   ar
    21    22    23   ar
    22    23    24   ar
    23     7    11    1
    24    18    12   ar
    25    11     3    1
    26    10     6   ar
    27    24    19   ar
