@<TRIPOS>MOLECULE
*****
 33 38 0 0 0
SMALL
GASTEIGER

@<TRIPOS>ATOM
      1 C          63.0358   88.3023   12.1303 C.ar    1  UNL1        0.0822
      2 C          63.8088   88.9383   13.2474 C.ar    1  UNL1        0.0055
      3 C          64.2466   90.3688   13.1371 C.ar    1  UNL1        0.0117
      4 C          63.9114   91.1632   11.9096 C.ar    1  UNL1        0.1367
      5 C          63.1384   90.5271   10.7926 C.ar    1  UNL1        0.0663
      6 C          62.7006   89.0967   10.9029 C.ar    1  UNL1        0.1475
      7 F          61.9276   88.4606    9.7858 F       1  UNL1       -0.2039
      8 O          61.3267   86.4238   11.5826 O.2     1  UNL1       -0.2685
      9 C          62.5980   86.8718   12.2406 C.2     1  UNL1        0.2672
     10 N          63.4315   85.8895   13.0089 N.am    1  UNL1       -0.1713
     11 H          64.2659   86.1836   13.4408 H       1  UNL1        0.1779
     12 S          62.9936   84.4591   13.1192 S.O2    1  UNL1        0.1153
     13 O          63.6644   84.1531   11.8129 O.2     1  UNL1       -0.1378
     14 O          62.3229   84.7651   14.4255 O.2     1  UNL1       -0.1378
     15 N          62.5558   83.0286   13.2294 N.3     1  UNL1       -0.1427
     16 C          62.4722   81.8689   12.2818 C.3     1  UNL1        0.0986
     17 C          61.9366   81.0057   13.3854 C.3     1  UNL1        0.0384
     18 C          62.0202   82.1654   14.3331 C.3     1  UNL1        0.0986
     19 C          65.0197   91.0049   14.2542 C.3     1  UNL1        0.0253
     20 C          66.3314   91.3889   14.8721 C.3     1  UNL1        0.0048
     21 C          65.0468   91.7225   15.5710 C.3     1  UNL1        0.0048
     22 O          64.3492   92.5936   11.7993 O.3     1  UNL1       -0.4757
     23 C          65.8102   92.9284   11.7401 C.3     1  UNL1        0.2051
     24 C          66.3346   93.8061   10.6425 C.3     1  UNL1        0.0404
     25 C          67.4219   93.3067    9.7377 C.3     1  UNL1        0.0036
     26 C          67.9463   94.1844    8.6402 C.3     1  UNL1        0.0001
     27 C          67.3834   95.5613    8.4473 C.3     1  UNL1        0.0000
     28 C          66.2962   96.0607    9.3520 C.3     1  UNL1        0.0001
     29 C          67.0320   93.0130   10.3416 C.3     1  UNL1        0.0000
     30 C          67.9847   91.9298    9.9306 C.3     1  UNL1        0.0001
     31 C          68.5091   92.8074    8.8330 C.3     1  UNL1        0.0000
     32 C          66.8975   92.4291   10.8353 C.3     1  UNL1        0.0036
     33 C          65.7718   95.1830   10.4496 C.3     1  UNL1        0.0036
@<TRIPOS>BOND
     1     8     9    2
     2     9    10   am
     3    10    12    1
     4    12    13    2
     5    12    14    2
     6    12    15    1
     7    15    16    1
     8    16    17    1
     9    17    18    1
    10     9     1    1
    11     1     2   ar
    12     2     3   ar
    13     3    19    1
    14    19    20    1
    15    20    21    1
    16     3     4   ar
    17     4    22    1
    18    22    23    1
    19    23    24    1
    20    24    25    1
    21    25    26    1
    22    26    27    1
    23    27    28    1
    24    28    29    1
    25    29    30    1
    26    30    31    1
    27    30    32    1
    28    28    33    1
    29     4     5   ar
    30     5     6   ar
    31     6     7    1
    32    18    15    1
    33     6     1   ar
    34    21    19    1
    35    32    24    1
    36    33    24    1
    37    31    26    1
    38    10    11    1
@<TRIPOS>MOLECULE
*****
 33 38 0 0 0
SMALL
GASTEIGER

@<TRIPOS>ATOM
      1 C          64.1952   88.7997   13.9099 C.ar    1  UNL1        0.0822
      2 C          65.2168   89.5387   14.7223 C.ar    1  UNL1        0.0055
      3 C          65.5595   90.9593   14.3839 C.ar    1  UNL1        0.0117
      4 C          64.8805   91.6408   13.2331 C.ar    1  UNL1        0.1367
      5 C          63.8588   90.9019   12.4207 C.ar    1  UNL1        0.0663
      6 C          63.5161   89.4813   12.7591 C.ar    1  UNL1        0.1475
      7 F          62.4944   88.7422   11.9467 F       1  UNL1       -0.2039
      8 O          63.5544   86.9972   15.6679 O.2     1  UNL1       -0.2685
      9 C          63.8525   87.3791   14.2483 C.2     1  UNL1        0.2672
     10 N          63.8079   86.3404   13.1671 N.am    1  UNL1       -0.1713
     11 H          64.0035   86.5910   12.2353 H       1  UNL1        0.1779
     12 S          63.4652   84.9198   13.5055 S.O2    1  UNL1        0.1153
     13 O          62.0303   85.1828   13.1564 O.2     1  UNL1       -0.1378
     14 O          64.9001   84.6569   13.8546 O.2     1  UNL1       -0.1378
     15 N          63.1224   83.4992   13.8439 N.3     1  UNL1       -0.1427
     16 C          62.0511   82.8305   14.6532 C.3     1  UNL1        0.0986
     17 C          62.6378   81.4902   14.3225 C.3     1  UNL1        0.0384
     18 C          63.7092   82.1589   13.5131 C.3     1  UNL1        0.0986
     19 C          66.5812   91.6983   15.1964 C.3     1  UNL1        0.0253
     20 C          66.9223   92.7567   16.2031 C.3     1  UNL1        0.0048
     21 C          68.0096   91.9199   15.5968 C.3     1  UNL1        0.0048
     22 O          65.2231   93.0615   12.8947 O.3     1  UNL1       -0.4757
     23 C          65.2042   93.5176   11.4659 C.3     1  UNL1        0.2051
     24 C          66.4323   93.3745   10.6166 C.3     1  UNL1        0.0404
     25 C          66.9125   94.5313    9.7913 C.3     1  UNL1        0.0036
     26 C          68.1405   94.3880    8.9420 C.3     1  UNL1        0.0001
     27 C          68.8884   93.0880    8.9180 C.3     1  UNL1        0.0000
     28 C          68.4083   91.9312    9.7433 C.3     1  UNL1        0.0001
     29 C          66.3191   94.4129   10.2779 C.3     1  UNL1        0.0000
     30 C          66.1646   95.8313    9.8152 C.3     1  UNL1        0.0001
     31 C          67.3926   95.6881    8.9659 C.3     1  UNL1        0.0000
     32 C          65.6844   94.6745   10.6406 C.3     1  UNL1        0.0036
     33 C          67.1803   92.0744   10.5926 C.3     1  UNL1        0.0036
@<TRIPOS>BOND
     1     8     9    2
     2     9    10   am
     3    10    12    1
     4    12    13    2
     5    12    14    2
     6    12    15    1
     7    15    16    1
     8    16    17    1
     9    17    18    1
    10     9     1    1
    11     1     2   ar
    12     2     3   ar
    13     3    19    1
    14    19    20    1
    15    20    21    1
    16     3     4   ar
    17     4    22    1
    18    22    23    1
    19    23    24    1
    20    24    25    1
    21    25    26    1
    22    26    27    1
    23    27    28    1
    24    28    29    1
    25    29    30    1
    26    30    31    1
    27    30    32    1
    28    28    33    1
    29     4     5   ar
    30     5     6   ar
    31     6     7    1
    32    18    15    1
    33     6     1   ar
    34    21    19    1
    35    32    24    1
    36    33    24    1
    37    31    26    1
    38    10    11    1
@<TRIPOS>MOLECULE
*****
 33 38 0 0 0
SMALL
GASTEIGER

@<TRIPOS>ATOM
      1 C          63.7099   87.1198   13.5642 C.ar    1  UNL1        0.0822
      2 C          63.2710   87.8768   12.3459 C.ar    1  UNL1        0.0055
      3 C          63.3059   89.3763   12.3418 C.ar    1  UNL1        0.0117
      4 C          63.7796   90.1189   13.5559 C.ar    1  UNL1        0.1367
      5 C          64.2184   89.3619   14.7742 C.ar    1  UNL1        0.0663
      6 C          64.1835   87.8623   14.7784 C.ar    1  UNL1        0.1475
      7 F          64.6224   87.1052   15.9967 F       1  UNL1       -0.2039
      8 O          64.9155   84.8420   13.8937 O.2     1  UNL1       -0.2685
      9 C          63.6750   85.6201   13.5683 C.2     1  UNL1        0.2672
     10 N          62.3998   84.8986   13.2472 N.am    1  UNL1       -0.1713
     11 H          61.5856   85.4093   13.0336 H       1  UNL1        0.1779
     12 S          62.3650   83.3991   13.2514 S.O2    1  UNL1        0.1153
     13 O          62.6839   83.3876   11.7857 O.2     1  UNL1       -0.1378
     14 O          62.0461   83.4106   14.7170 O.2     1  UNL1       -0.1378
     15 N          62.3302   81.8994   13.2555 N.3     1  UNL1       -0.1427
     16 C          63.0186   80.8203   12.4734 C.3     1  UNL1        0.0986
     17 C          62.2810   79.7787   13.2614 C.3     1  UNL1        0.0384
     18 C          61.5926   80.8578   14.0435 C.3     1  UNL1        0.0986
     19 C          62.8670   90.1334   11.1234 C.3     1  UNL1        0.0253
     20 C          63.1216   91.1882   10.0878 C.3     1  UNL1        0.0048
     21 C          61.8523   90.3898   10.0489 C.3     1  UNL1        0.0048
     22 O          63.8144   91.6185   13.5518 O.3     1  UNL1       -0.4757
     23 C          65.0576   92.3386   13.1207 C.3     1  UNL1        0.2051
     24 C          66.2600   92.3618   14.0173 C.3     1  UNL1        0.0404
     25 C          67.6201   92.0712   13.4556 C.3     1  UNL1        0.0036
     26 C          68.8224   92.0943   14.3521 C.3     1  UNL1        0.0001
     27 C          68.6646   92.4081   15.8104 C.3     1  UNL1        0.0000
     28 C          67.3045   92.6988   16.3722 C.3     1  UNL1        0.0001
     29 C          66.9015   92.1063   13.1635 C.3     1  UNL1        0.0000
     30 C          67.7779   91.7574   11.9973 C.3     1  UNL1        0.0001
     31 C          68.9802   91.7805   12.8938 C.3     1  UNL1        0.0000
     32 C          66.4178   92.0480   12.5590 C.3     1  UNL1        0.0036
     33 C          66.1022   92.6756   15.4756 C.3     1  UNL1        0.0036
@<TRIPOS>BOND
     1     8     9    2
     2     9    10   am
     3    10    12    1
     4    12    13    2
     5    12    14    2
     6    12    15    1
     7    15    16    1
     8    16    17    1
     9    17    18    1
    10     9     1    1
    11     1     2   ar
    12     2     3   ar
    13     3    19    1
    14    19    20    1
    15    20    21    1
    16     3     4   ar
    17     4    22    1
    18    22    23    1
    19    23    24    1
    20    24    25    1
    21    25    26    1
    22    26    27    1
    23    27    28    1
    24    28    29    1
    25    29    30    1
    26    30    31    1
    27    30    32    1
    28    28    33    1
    29     4     5   ar
    30     5     6   ar
    31     6     7    1
    32    18    15    1
    33     6     1   ar
    34    21    19    1
    35    32    24    1
    36    33    24    1
    37    31    26    1
    38    10    11    1
@<TRIPOS>MOLECULE
*****
 33 38 0 0 0
SMALL
GASTEIGER

@<TRIPOS>ATOM
      1 C          63.7181   87.0334   13.5313 C.ar    1  UNL1        0.0822
      2 C          63.1987   87.7966   12.3491 C.ar    1  UNL1        0.0055
      3 C          63.2221   89.2964   12.3555 C.ar    1  UNL1        0.0117
      4 C          63.7649   90.0329   13.5441 C.ar    1  UNL1        0.1367
      5 C          64.2844   89.2697   14.7263 C.ar    1  UNL1        0.0663
      6 C          64.2610   87.7699   14.7199 C.ar    1  UNL1        0.1475
      7 F          64.7804   87.0066   15.9021 F       1  UNL1       -0.2039
      8 O          64.9424   84.7627   13.8397 O.2     1  UNL1       -0.2685
      9 C          63.6948   85.5335   13.5249 C.2     1  UNL1        0.2672
     10 N          62.4238   84.8046   13.2037 N.am    1  UNL1       -0.1713
     11 H          61.6049   85.3106   12.9970 H       1  UNL1        0.1779
     12 S          62.4004   83.3049   13.1973 S.O2    1  UNL1        0.1153
     13 O          62.6879   83.3066   11.7251 O.2     1  UNL1       -0.1378
     14 O          62.1130   83.3031   14.6694 O.2     1  UNL1       -0.1378
     15 N          62.3771   81.8050   13.1909 N.3     1  UNL1       -0.1427
     16 C          61.7618   80.7500   14.0617 C.3     1  UNL1        0.0986
     17 C          62.3442   79.6839   13.1817 C.3     1  UNL1        0.0384
     18 C          62.9596   80.7390   12.3109 C.3     1  UNL1        0.0986
     19 C          62.7027   90.0597   11.1733 C.3     1  UNL1        0.0253
     20 C          61.5923   90.3714   10.2141 C.3     1  UNL1        0.0048
     21 C          62.9133   91.0701   10.0849 C.3     1  UNL1        0.0048
     22 O          63.7883   91.5328   13.5505 O.3     1  UNL1       -0.4757
     23 C          65.0849   92.2619   13.7435 C.3     1  UNL1        0.2051
     24 C          66.1223   92.2469   12.6601 C.3     1  UNL1        0.0404
     25 C          67.5575   91.9732   12.9997 C.3     1  UNL1        0.0036
     26 C          68.5948   91.9583   11.9163 C.3     1  UNL1        0.0001
     27 C          68.1969   92.2169   10.4934 C.3     1  UNL1        0.0000
     28 C          66.7617   92.4905   10.1538 C.3     1  UNL1        0.0001
     29 C          66.8970   92.0219   13.4051 C.3     1  UNL1        0.0000
     30 C          67.9553   91.7146   14.4227 C.3     1  UNL1        0.0001
     31 C          68.9926   91.6996   13.3393 C.3     1  UNL1        0.0000
     32 C          66.5202   91.9882   14.0831 C.3     1  UNL1        0.0036
     33 C          65.7244   92.5055   11.2372 C.3     1  UNL1        0.0036
@<TRIPOS>BOND
     1     8     9    2
     2     9    10   am
     3    10    12    1
     4    12    13    2
     5    12    14    2
     6    12    15    1
     7    15    16    1
     8    16    17    1
     9    17    18    1
    10     9     1    1
    11     1     2   ar
    12     2     3   ar
    13     3    19    1
    14    19    20    1
    15    20    21    1
    16     3     4   ar
    17     4    22    1
    18    22    23    1
    19    23    24    1
    20    24    25    1
    21    25    26    1
    22    26    27    1
    23    27    28    1
    24    28    29    1
    25    29    30    1
    26    30    31    1
    27    30    32    1
    28    28    33    1
    29     4     5   ar
    30     5     6   ar
    31     6     7    1
    32    18    15    1
    33     6     1   ar
    34    21    19    1
    35    32    24    1
    36    33    24    1
    37    31    26    1
    38    10    11    1
@<TRIPOS>MOLECULE
*****
 33 38 0 0 0
SMALL
GASTEIGER

@<TRIPOS>ATOM
      1 C          63.4847   87.6503   13.0980 C.ar    1  UNL1        0.0822
      2 C          63.2443   88.6057   11.9669 C.ar    1  UNL1        0.0055
      3 C          63.7080   90.0281   12.0753 C.ar    1  UNL1        0.0117
      4 C          64.4123   90.4950   13.3146 C.ar    1  UNL1        0.1367
      5 C          64.6528   89.5396   14.4457 C.ar    1  UNL1        0.0663
      6 C          64.1890   88.1172   14.3373 C.ar    1  UNL1        0.1475
      7 F          64.4294   87.1617   15.4684 F       1  UNL1       -0.2039
      8 O          61.7720   85.9024   12.2254 O.2     1  UNL1       -0.2685
      9 C          63.0209   86.2278   12.9897 C.2     1  UNL1        0.2672
     10 N          63.8061   85.1310   13.6457 N.am    1  UNL1       -0.1713
     11 H          64.6259   85.3446   14.1473 H       1  UNL1        0.1779
     12 S          63.3423   83.7086   13.5374 S.O2    1  UNL1        0.1153
     13 O          64.4116   83.4373   12.5211 O.2     1  UNL1       -0.1378
     14 O          62.2730   83.9800   14.5537 O.2     1  UNL1       -0.1378
     15 N          62.8785   82.2862   13.4290 N.3     1  UNL1       -0.1427
     16 C          62.1201   81.3471   14.3195 C.3     1  UNL1        0.0986
     17 C          62.2227   80.2747   13.2757 C.3     1  UNL1        0.0384
     18 C          62.9811   81.2138   12.3853 C.3     1  UNL1        0.0986
     19 C          63.4676   90.9836   10.9442 C.3     1  UNL1        0.0253
     20 C          62.6893   91.3858    9.7266 C.3     1  UNL1        0.0048
     21 C          63.8294   92.2363   10.2028 C.3     1  UNL1        0.0048
     22 O          64.8761   91.9174   13.4229 O.3     1  UNL1       -0.4757
     23 C          66.2768   92.2816   13.0289 C.3     1  UNL1        0.2051
     24 C          66.5127   93.3139   11.9664 C.3     1  UNL1        0.0404
     25 C          67.3216   92.9683   10.7514 C.3     1  UNL1        0.0036
     26 C          67.5574   94.0005    9.6889 C.3     1  UNL1        0.0001
     27 C          66.9844   95.3783    9.8415 C.3     1  UNL1        0.0000
     28 C          66.1755   95.7239   11.0564 C.3     1  UNL1        0.0001
     29 C          67.0968   92.5855   11.3884 C.3     1  UNL1        0.0000
     30 C          67.8946   91.5905   10.5989 C.3     1  UNL1        0.0001
     31 C          68.1305   92.6227    9.5364 C.3     1  UNL1        0.0000
     32 C          67.0857   91.9361   11.8138 C.3     1  UNL1        0.0036
     33 C          65.9396   94.6917   12.1189 C.3     1  UNL1        0.0036
@<TRIPOS>BOND
     1     8     9    2
     2     9    10   am
     3    10    12    1
     4    12    13    2
     5    12    14    2
     6    12    15    1
     7    15    16    1
     8    16    17    1
     9    17    18    1
    10     9     1    1
    11     1     2   ar
    12     2     3   ar
    13     3    19    1
    14    19    20    1
    15    20    21    1
    16     3     4   ar
    17     4    22    1
    18    22    23    1
    19    23    24    1
    20    24    25    1
    21    25    26    1
    22    26    27    1
    23    27    28    1
    24    28    29    1
    25    29    30    1
    26    30    31    1
    27    30    32    1
    28    28    33    1
    29     4     5   ar
    30     5     6   ar
    31     6     7    1
    32    18    15    1
    33     6     1   ar
    34    21    19    1
    35    32    24    1
    36    33    24    1
    37    31    26    1
    38    10    11    1
@<TRIPOS>MOLECULE
*****
 33 38 0 0 0
SMALL
GASTEIGER

@<TRIPOS>ATOM
      1 C          63.8937   90.0902   12.2242 C.ar    1  UNL1        0.0822
      2 C          64.2903   89.1549   13.3278 C.ar    1  UNL1        0.0055
      3 C          63.7305   87.7639   13.3694 C.ar    1  UNL1        0.0117
      4 C          62.7742   87.3082   12.3074 C.ar    1  UNL1        0.1367
      5 C          62.3776   88.2435   11.2039 C.ar    1  UNL1        0.0663
      6 C          62.9374   89.6345   11.1623 C.ar    1  UNL1        0.1475
      7 F          62.5408   90.5699   10.0587 F       1  UNL1       -0.2039
      8 O          64.3609   92.3634   13.3922 O.2     1  UNL1       -0.2685
      9 C          64.4535   91.4812   12.1826 C.2     1  UNL1        0.2672
     10 N          65.1058   91.9900   10.9314 N.am    1  UNL1       -0.1713
     11 H          65.1666   91.4110   10.1375 H       1  UNL1        0.1779
     12 S          65.6655   93.3810   10.8898 S.O2    1  UNL1        0.1153
     13 O          64.4922   93.8287   10.0697 O.2     1  UNL1       -0.1378
     14 O          66.8389   92.9334   11.7100 O.2     1  UNL1       -0.1378
     15 N          66.2253   94.7721   10.8482 N.3     1  UNL1       -0.1427
     16 C          66.1928   95.9565   11.7681 C.3     1  UNL1        0.0986
     17 C          67.0168   96.7393   10.7893 C.3     1  UNL1        0.0384
     18 C          67.0493   95.5550    9.8694 C.3     1  UNL1        0.0986
     19 C          64.1271   86.8285   14.4730 C.3     1  UNL1        0.0253
     20 C          63.9254   86.2979   15.8614 C.3     1  UNL1        0.0048
     21 C          65.0156   85.7390   14.9959 C.3     1  UNL1        0.0048
     22 O          62.2144   85.9171   12.3490 O.3     1  UNL1       -0.4757
     23 C          63.0799   84.7490   11.9799 C.3     1  UNL1        0.2051
     24 C          62.7801   83.3882   12.5352 C.3     1  UNL1        0.0404
     25 C          63.0277   82.1665   11.7010 C.3     1  UNL1        0.0036
     26 C          62.7279   80.8057   12.2564 C.3     1  UNL1        0.0001
     27 C          62.1803   80.6668   13.6459 C.3     1  UNL1        0.0000
     28 C          61.9326   81.8885   14.4801 C.3     1  UNL1        0.0001
     29 C          63.1162   82.9306   11.5953 C.3     1  UNL1        0.0000
     30 C          63.5753   82.3055   10.3115 C.3     1  UNL1        0.0001
     31 C          63.2754   80.9447   10.8668 C.3     1  UNL1        0.0000
     32 C          63.3276   83.5272   11.1457 C.3     1  UNL1        0.0036
     33 C          62.2325   83.2492   13.9248 C.3     1  UNL1        0.0036
@<TRIPOS>BOND
     1     8     9    2
     2     9    10   am
     3    10    12    1
     4    12    13    2
     5    12    14    2
     6    12    15    1
     7    15    16    1
     8    16    17    1
     9    17    18    1
    10     9     1    1
    11     1     2   ar
    12     2     3   ar
    13     3    19    1
    14    19    20    1
    15    20    21    1
    16     3     4   ar
    17     4    22    1
    18    22    23    1
    19    23    24    1
    20    24    25    1
    21    25    26    1
    22    26    27    1
    23    27    28    1
    24    28    29    1
    25    29    30    1
    26    30    31    1
    27    30    32    1
    28    28    33    1
    29     4     5   ar
    30     5     6   ar
    31     6     7    1
    32    18    15    1
    33     6     1   ar
    34    21    19    1
    35    32    24    1
    36    33    24    1
    37    31    26    1
    38    10    11    1
@<TRIPOS>MOLECULE
*****
 33 38 0 0 0
SMALL
GASTEIGER

@<TRIPOS>ATOM
      1 C          61.0492   88.2934   10.0891 C.ar    1  UNL1        0.0822
      2 C          61.9307   88.9130   11.1326 C.ar    1  UNL1        0.0055
      3 C          62.7011   88.0399   12.0782 C.ar    1  UNL1        0.0117
      4 C          62.5899   86.5472   11.9803 C.ar    1  UNL1        0.1367
      5 C          61.7084   85.9276   10.9367 C.ar    1  UNL1        0.0663
      6 C          60.9381   86.8007    9.9911 C.ar    1  UNL1        0.1475
      7 F          60.0565   86.1811    8.9475 F       1  UNL1       -0.2039
      8 O          59.7042   90.4667    9.6223 O.2     1  UNL1       -0.2685
      9 C          60.2788   89.1665    9.1434 C.2     1  UNL1        0.2672
     10 N          60.0831   88.7394    7.7189 N.am    1  UNL1       -0.1713
     11 H          60.4602   87.8860    7.4046 H       1  UNL1        0.1779
     12 S          59.3127   89.6125    6.7733 S.O2    1  UNL1        0.1153
     13 O          60.5584   90.3953    6.4812 O.2     1  UNL1       -0.1378
     14 O          58.0670   88.8297    7.0654 O.2     1  UNL1       -0.1378
     15 N          58.5423   90.4856    5.8276 N.3     1  UNL1       -0.1427
     16 C          57.1004   90.6082    5.4329 C.3     1  UNL1        0.0986
     17 C          57.4530   91.7205    4.4903 C.3     1  UNL1        0.0384
     18 C          58.8949   91.5979    4.8850 C.3     1  UNL1        0.0986
     19 C          63.5826   88.6594   13.1219 C.3     1  UNL1        0.0253
     20 C          64.3369   89.8442   13.6485 C.3     1  UNL1        0.0048
     21 C          64.3552   88.5477   14.4027 C.3     1  UNL1        0.0048
     22 O          63.3603   85.6741   12.9260 O.3     1  UNL1       -0.4757
     23 C          63.9597   84.3879   12.4398 C.3     1  UNL1        0.2051
     24 C          63.2865   83.0832   12.7474 C.3     1  UNL1        0.0404
     25 C          63.2759   81.9855   11.7252 C.3     1  UNL1        0.0036
     26 C          62.6027   80.6808   12.0328 C.3     1  UNL1        0.0001
     27 C          61.9401   80.4739   13.3625 C.3     1  UNL1        0.0000
     28 C          61.9507   81.5717   14.3847 C.3     1  UNL1        0.0001
     29 C          63.5621   82.7067   11.7533 C.3     1  UNL1        0.0000
     30 C          63.9385   82.1923   10.3955 C.3     1  UNL1        0.0001
     31 C          63.2653   80.8877   10.7031 C.3     1  UNL1        0.0000
     32 C          63.9491   83.2901   11.4177 C.3     1  UNL1        0.0036
     33 C          62.6239   82.8763   14.0771 C.3     1  UNL1        0.0036
@<TRIPOS>BOND
     1     8     9    2
     2     9    10   am
     3    10    12    1
     4    12    13    2
     5    12    14    2
     6    12    15    1
     7    15    16    1
     8    16    17    1
     9    17    18    1
    10     9     1    1
    11     1     2   ar
    12     2     3   ar
    13     3    19    1
    14    19    20    1
    15    20    21    1
    16     3     4   ar
    17     4    22    1
    18    22    23    1
    19    23    24    1
    20    24    25    1
    21    25    26    1
    22    26    27    1
    23    27    28    1
    24    28    29    1
    25    29    30    1
    26    30    31    1
    27    30    32    1
    28    28    33    1
    29     4     5   ar
    30     5     6   ar
    31     6     7    1
    32    18    15    1
    33     6     1   ar
    34    21    19    1
    35    32    24    1
    36    33    24    1
    37    31    26    1
    38    10    11    1
@<TRIPOS>MOLECULE
*****
 33 38 0 0 0
SMALL
GASTEIGER

@<TRIPOS>ATOM
      1 C          64.5981   89.8908   13.8714 C.ar    1  UNL1        0.0822
      2 C          64.6848   88.4941   14.4114 C.ar    1  UNL1        0.0055
      3 C          63.8805   87.3955   13.7820 C.ar    1  UNL1        0.0117
      4 C          62.9895   87.6936   12.6128 C.ar    1  UNL1        0.1367
      5 C          62.9027   89.0903   12.0728 C.ar    1  UNL1        0.0663
      6 C          63.7070   90.1889   12.7021 C.ar    1  UNL1        0.1475
      7 F          63.6204   91.5857   12.1621 F       1  UNL1       -0.2039
      8 O          64.7705   91.8941   15.5168 O.2     1  UNL1       -0.2685
      9 C          65.4024   90.9896   14.5007 C.2     1  UNL1        0.2672
     10 N          66.8386   91.1837   14.1139 N.am    1  UNL1       -0.1713
     11 H          67.2533   90.5900   13.4470 H       1  UNL1        0.1779
     12 S          67.6428   92.2824   14.7432 S.O2    1  UNL1        0.1153
     13 O          67.9784   91.3785   15.8923 O.2     1  UNL1       -0.1378
     14 O          67.3072   93.1862   13.5941 O.2     1  UNL1       -0.1378
     15 N          68.4471   93.3811   15.3726 N.3     1  UNL1       -0.1427
     16 C          69.7810   93.4625   16.0539 C.3     1  UNL1        0.0986
     17 C          69.5845   94.9349   16.2626 C.3     1  UNL1        0.0384
     18 C          68.2506   94.8534   15.5813 C.3     1  UNL1        0.0986
     19 C          63.9672   85.9987   14.3220 C.3     1  UNL1        0.0253
     20 C          64.0746   84.5206   14.0901 C.3     1  UNL1        0.0048
     21 C          64.0099   85.0575   15.4892 C.3     1  UNL1        0.0048
     22 O          62.1851   86.5949   11.9834 O.3     1  UNL1       -0.4757
     23 C          61.2698   86.8990   10.8347 C.3     1  UNL1        0.2051
     24 C          61.4881   86.2374    9.5063 C.3     1  UNL1        0.0404
     25 C          60.4435   86.3431    8.4351 C.3     1  UNL1        0.0036
     26 C          60.6618   85.6815    7.1067 C.3     1  UNL1        0.0001
     27 C          61.9247   84.9142    6.8496 C.3     1  UNL1        0.0000
     28 C          62.9693   84.8084    7.9208 C.3     1  UNL1        0.0001
     29 C          60.5128   86.6064    9.1622 C.3     1  UNL1        0.0000
     30 C          59.1805   87.1105    8.6922 C.3     1  UNL1        0.0001
     31 C          59.3988   86.4489    7.3638 C.3     1  UNL1        0.0000
     32 C          60.2251   87.0047    9.7634 C.3     1  UNL1        0.0036
     33 C          62.7510   85.4700    9.2491 C.3     1  UNL1        0.0036
@<TRIPOS>BOND
     1     8     9    2
     2     9    10   am
     3    10    12    1
     4    12    13    2
     5    12    14    2
     6    12    15    1
     7    15    16    1
     8    16    17    1
     9    17    18    1
    10     9     1    1
    11     1     2   ar
    12     2     3   ar
    13     3    19    1
    14    19    20    1
    15    20    21    1
    16     3     4   ar
    17     4    22    1
    18    22    23    1
    19    23    24    1
    20    24    25    1
    21    25    26    1
    22    26    27    1
    23    27    28    1
    24    28    29    1
    25    29    30    1
    26    30    31    1
    27    30    32    1
    28    28    33    1
    29     4     5   ar
    30     5     6   ar
    31     6     7    1
    32    18    15    1
    33     6     1   ar
    34    21    19    1
    35    32    24    1
    36    33    24    1
    37    31    26    1
    38    10    11    1
