@<TRIPOS>MOLECULE
*****
 27 30 0 0 0
SMALL
GASTEIGER

@<TRIPOS>ATOM
      1 O          63.3136   91.3105   16.7682 O.2     1  UNL1       -0.2698
      2 C          63.9424   90.4878   15.6827 C.2     1  UNL1        0.2520
      3 N          63.8258   88.9926   15.7120 N.am    1  UNL1       -0.2731
      4 C          64.4545   88.1700   14.6266 C.3     1  UNL1        0.1110
      5 C          64.3380   86.6748   14.6559 C.3     1  UNL1        0.0939
      6 N          63.5928   86.0023   15.7704 N.3     1  UNL1       -0.2695
      7 C          62.9641   86.8250   16.8559 C.3     1  UNL1        0.0939
      8 C          63.0806   88.3202   16.8266 C.3     1  UNL1        0.1110
      9 C          64.6876   91.1604   14.5681 C.ar    1  UNL1        0.0880
     10 C          66.0112   91.8127   14.8374 C.ar    1  UNL1        0.0091
     11 C          66.7564   92.4852   13.7228 C.ar    1  UNL1        0.0193
     12 C          66.1780   92.5055   12.3389 C.ar    1  UNL1        0.0815
     13 N          64.8544   91.8532   12.0697 N.ar    1  UNL1       -0.2873
     14 C          64.0403   91.7139   10.8175 C.ar    1  UNL1        0.1022
     15 C          62.7920   90.9553   11.1582 C.ar    1  UNL1        0.1195
     16 N          62.8345   90.6257   12.6210 N.ar    1  UNL1       -0.2247
     17 C          64.1092   91.1806   13.1843 C.ar    1  UNL1        0.1522
     18 C          63.4762   84.5071   15.7997 C.3     1  UNL1        0.0770
     19 C          62.2815   83.8359   15.1896 C.3     1  UNL1        0.0459
     20 C          62.4536   82.9265   14.0092 C.ar    1  UNL1        0.0068
     21 C          62.2911   81.4445   14.1743 C.ar    1  UNL1        0.0003
     22 C          62.4632   80.5350   12.9939 C.ar    1  UNL1        0.0295
     23 C          62.7977   81.1076   11.6485 C.ar    1  UNL1        0.1424
     24 F          62.9698   80.1982   10.4680 F       1  UNL1       -0.2041
     25 C          62.9602   82.5897   11.4834 C.ar    1  UNL1        0.0589
     26 C          62.7882   83.4991   12.6638 C.ar    1  UNL1        0.1384
     27 F          62.9507   84.9811   12.4987 F       1  UNL1       -0.2044
@<TRIPOS>BOND
     1     1     2    2
     2     2     9    1
     3     9    10   ar
     4    10    11   ar
     5    11    12   ar
     6    12    13   ar
     7    13    14   ar
     8    14    15   ar
     9    15    16   ar
    10    16    17   ar
    11     2     3   am
    12     3     4    1
    13     4     5    1
    14     5     6    1
    15     6    18    1
    16    18    19    1
    17    19    20    1
    18    20    21   ar
    19    21    22   ar
    20    22    23   ar
    21    23    24    1
    22    23    25   ar
    23    25    26   ar
    24    26    27    1
    25     6     7    1
    26     7     8    1
    27    17     9   ar
    28     8     3    1
    29    17    13   ar
    30    26    20   ar
@<TRIPOS>MOLECULE
*****
 27 30 0 0 0
SMALL
GASTEIGER

@<TRIPOS>ATOM
      1 O          63.1999   91.2880   16.8266 O.2     1  UNL1       -0.2698
      2 C          63.8358   90.5058   15.7157 C.2     1  UNL1        0.2520
      3 N          63.7658   89.0074   15.7179 N.am    1  UNL1       -0.2731
      4 C          64.4016   88.2253   14.6071 C.3     1  UNL1        0.1110
      5 C          64.3316   86.7269   14.6094 C.3     1  UNL1        0.0939
      6 N          63.6258   86.0107   15.7224 N.3     1  UNL1       -0.2695
      7 C          62.9899   86.7930   16.8333 C.3     1  UNL1        0.0939
      8 C          63.0599   88.2913   16.8311 C.3     1  UNL1        0.1110
      9 C          64.5416   91.2220   14.6027 C.ar    1  UNL1        0.0880
     10 C          64.0348   91.1057   13.1957 C.ar    1  UNL1        0.0091
     11 C          64.7406   91.8219   12.0827 C.ar    1  UNL1        0.0193
     12 C          65.9533   92.6544   12.3766 C.ar    1  UNL1        0.0815
     13 N          66.4601   92.7707   13.7835 N.ar    1  UNL1       -0.2873
     14 C          67.6224   93.5130   14.3735 C.ar    1  UNL1        0.1022
     15 C          67.6349   93.2555   15.8512 C.ar    1  UNL1        0.1195
     16 N          66.4804   92.3541   16.1745 N.ar    1  UNL1       -0.2247
     17 C          65.7543   92.0545   14.8966 C.ar    1  UNL1        0.1522
     18 C          63.5558   84.5123   15.7247 C.3     1  UNL1        0.0770
     19 C          62.3531   83.8169   15.1592 C.3     1  UNL1        0.0459
     20 C          62.5059   82.8782   13.9992 C.ar    1  UNL1        0.0068
     21 C          62.2779   81.4079   14.1892 C.ar    1  UNL1        0.0003
     22 C          62.4308   80.4693   13.0291 C.ar    1  UNL1        0.0295
     23 C          62.8116   81.0009   11.6793 C.ar    1  UNL1        0.1424
     24 F          62.9644   80.0623   10.5192 F       1  UNL1       -0.2041
     25 C          63.0395   82.4714   11.4893 C.ar    1  UNL1        0.0589
     26 C          62.8867   83.4100   12.6493 C.ar    1  UNL1        0.1384
     27 F          63.1146   84.8804   12.4593 F       1  UNL1       -0.2044
@<TRIPOS>BOND
     1     1     2    2
     2     2     9    1
     3     9    10   ar
     4    10    11   ar
     5    11    12   ar
     6    12    13   ar
     7    13    14   ar
     8    14    15   ar
     9    15    16   ar
    10    16    17   ar
    11     2     3   am
    12     3     4    1
    13     4     5    1
    14     5     6    1
    15     6    18    1
    16    18    19    1
    17    19    20    1
    18    20    21   ar
    19    21    22   ar
    20    22    23   ar
    21    23    24    1
    22    23    25   ar
    23    25    26   ar
    24    26    27    1
    25     6     7    1
    26     7     8    1
    27    17     9   ar
    28     8     3    1
    29    17    13   ar
    30    26    20   ar
@<TRIPOS>MOLECULE
*****
 27 30 0 0 0
SMALL
GASTEIGER

@<TRIPOS>ATOM
      1 O          60.8953   85.9230    9.9403 O.2     1  UNL1       -0.2698
      2 C          62.0092   85.9840   10.9432 C.2     1  UNL1        0.2520
      3 N          62.3977   87.2979   11.5536 N.am    1  UNL1       -0.2731
      4 C          63.5115   87.3589   12.5564 C.3     1  UNL1        0.1110
      5 C          63.9000   88.6729   13.1668 C.3     1  UNL1        0.0939
      6 N          63.1747   89.9258   12.7743 N.3     1  UNL1       -0.2695
      7 C          62.0609   89.8648   11.7714 C.3     1  UNL1        0.0939
      8 C          61.6723   88.5509   11.1610 C.3     1  UNL1        0.1110
      9 C          62.7345   84.7310   11.3356 C.ar    1  UNL1        0.0880
     10 C          63.4900   83.9472   10.3037 C.ar    1  UNL1        0.0091
     11 C          64.2153   82.6943   10.6961 C.ar    1  UNL1        0.0193
     12 C          64.1851   82.2250   12.1205 C.ar    1  UNL1        0.0815
     13 N          63.4296   83.0088   13.1524 N.ar    1  UNL1       -0.2873
     14 C          63.2223   82.7942   14.6225 C.ar    1  UNL1        0.1022
     15 C          62.3689   83.9146   15.1386 C.ar    1  UNL1        0.1195
     16 N          62.0487   84.8216   13.9875 N.ar    1  UNL1       -0.2247
     17 C          62.7043   84.2617   12.7600 C.ar    1  UNL1        0.1522
     18 C          63.5632   91.2398   13.3847 C.3     1  UNL1        0.0770
     19 C          64.8122   91.9367   12.9326 C.3     1  UNL1        0.0459
     20 C          65.9661   92.0961   13.8776 C.ar    1  UNL1        0.0068
     21 C          65.7136   92.2938   15.3429 C.ar    1  UNL1        0.0003
     22 C          66.8676   92.4532   16.2880 C.ar    1  UNL1        0.0295
     23 C          68.2739   92.4148   15.7677 C.ar    1  UNL1        0.1424
     24 F          69.4278   92.5742   16.7128 F       1  UNL1       -0.2041
     25 C          68.5263   92.2171   14.3023 C.ar    1  UNL1        0.0589
     26 C          67.3725   92.0577   13.3573 C.ar    1  UNL1        0.1384
     27 F          67.6250   91.8600   11.8920 F       1  UNL1       -0.2044
@<TRIPOS>BOND
     1     1     2    2
     2     2     9    1
     3     9    10   ar
     4    10    11   ar
     5    11    12   ar
     6    12    13   ar
     7    13    14   ar
     8    14    15   ar
     9    15    16   ar
    10    16    17   ar
    11     2     3   am
    12     3     4    1
    13     4     5    1
    14     5     6    1
    15     6    18    1
    16    18    19    1
    17    19    20    1
    18    20    21   ar
    19    21    22   ar
    20    22    23   ar
    21    23    24    1
    22    23    25   ar
    23    25    26   ar
    24    26    27    1
    25     6     7    1
    26     7     8    1
    27    17     9   ar
    28     8     3    1
    29    17    13   ar
    30    26    20   ar
@<TRIPOS>MOLECULE
*****
 27 30 0 0 0
SMALL
GASTEIGER

@<TRIPOS>ATOM
      1 O          63.2242   84.8628    7.8828 O.2     1  UNL1       -0.2698
      2 C          62.3841   85.4280    8.9897 C.2     1  UNL1        0.2520
      3 N          62.6393   85.0172   10.4096 N.am    1  UNL1       -0.2731
      4 C          61.7992   85.5823   11.5163 C.3     1  UNL1        0.1110
      5 C          62.0545   85.1715   12.9362 C.3     1  UNL1        0.0939
      6 N          63.1497   84.1957   13.2494 N.3     1  UNL1       -0.2695
      7 C          63.9898   83.6306   12.1426 C.3     1  UNL1        0.0939
      8 C          63.7346   84.0414   10.7227 C.3     1  UNL1        0.1110
      9 C          61.2888   86.4038    8.6765 C.ar    1  UNL1        0.0880
     10 C          60.1369   85.9861    7.8113 C.ar    1  UNL1        0.0091
     11 C          59.0416   86.9618    7.4982 C.ar    1  UNL1        0.0193
     12 C          59.0982   88.3555    8.0501 C.ar    1  UNL1        0.0815
     13 N          60.2502   88.7733    8.9153 N.ar    1  UNL1       -0.2873
     14 C          60.5753   90.0694    9.5966 C.ar    1  UNL1        0.1022
     15 C          61.8715   89.8946   10.3309 C.ar    1  UNL1        0.1195
     16 N          62.3475   88.4905   10.1034 N.ar    1  UNL1       -0.2247
     17 C          61.3455   87.7974    9.2284 C.ar    1  UNL1        0.1522
     18 C          63.4049   83.7849   14.6693 C.3     1  UNL1        0.0770
     19 C          64.2935   84.6196   15.5433 C.3     1  UNL1        0.0459
     20 C          64.0395   86.0913   15.6832 C.ar    1  UNL1        0.0068
     21 C          64.6009   87.0485   14.6739 C.ar    1  UNL1        0.0003
     22 C          64.3469   88.5202   14.8138 C.ar    1  UNL1        0.0295
     23 C          63.5316   89.0347   15.9629 C.ar    1  UNL1        0.1424
     24 F          63.2776   90.5065   16.1029 F       1  UNL1       -0.2041
     25 C          62.9702   88.0774   16.9723 C.ar    1  UNL1        0.0589
     26 C          63.2242   86.6057   16.8324 C.ar    1  UNL1        0.1384
     27 F          62.6628   85.6485   17.8416 F       1  UNL1       -0.2044
@<TRIPOS>BOND
     1     1     2    2
     2     2     9    1
     3     9    10   ar
     4    10    11   ar
     5    11    12   ar
     6    12    13   ar
     7    13    14   ar
     8    14    15   ar
     9    15    16   ar
    10    16    17   ar
    11     2     3   am
    12     3     4    1
    13     4     5    1
    14     5     6    1
    15     6    18    1
    16    18    19    1
    17    19    20    1
    18    20    21   ar
    19    21    22   ar
    20    22    23   ar
    21    23    24    1
    22    23    25   ar
    23    25    26   ar
    24    26    27    1
    25     6     7    1
    26     7     8    1
    27    17     9   ar
    28     8     3    1
    29    17    13   ar
    30    26    20   ar
@<TRIPOS>MOLECULE
*****
 27 30 0 0 0
SMALL
GASTEIGER

@<TRIPOS>ATOM
      1 O          64.5006   83.1250    9.9270 O.2     1  UNL1       -0.2698
      2 C          63.4091   83.7135   10.7710 C.2     1  UNL1        0.2520
      3 N          62.6886   84.9466   10.3124 N.am    1  UNL1       -0.2731
      4 C          61.5970   85.5350   11.1563 C.3     1  UNL1        0.1110
      5 C          60.8765   86.7682   10.6976 C.3     1  UNL1        0.0939
      6 N          61.2476   87.4128    9.3951 N.3     1  UNL1       -0.2695
      7 C          62.3392   86.8243    8.5511 C.3     1  UNL1        0.0939
      8 C          63.0596   85.5912    9.0097 C.3     1  UNL1        0.1110
      9 C          63.0380   83.0689   12.0736 C.ar    1  UNL1        0.0880
     10 C          62.3498   81.7361   12.0817 C.ar    1  UNL1        0.0091
     11 C          61.9788   81.0915   13.3842 C.ar    1  UNL1        0.0193
     12 C          62.2960   81.7796   14.6789 C.ar    1  UNL1        0.0815
     13 N          62.9842   83.1123   14.6708 N.ar    1  UNL1       -0.2873
     14 C          63.4216   84.0228   15.7798 C.ar    1  UNL1        0.1022
     15 C          64.0629   85.2301   15.1625 C.ar    1  UNL1        0.1195
     16 N          64.0219   85.0658   13.6721 N.ar    1  UNL1       -0.2247
     17 C          63.3552   83.7570   13.3682 C.ar    1  UNL1        0.1522
     18 C          60.5271   88.6459    8.9364 C.3     1  UNL1        0.0770
     19 C          60.4250   89.8360    9.8436 C.3     1  UNL1        0.0459
     20 C          61.6196   90.2810   10.6342 C.ar    1  UNL1        0.0068
     21 C          62.7692   90.9516    9.9426 C.ar    1  UNL1        0.0003
     22 C          63.9638   91.3966   10.7333 C.ar    1  UNL1        0.0295
     23 C          64.0086   91.1709   12.2154 C.ar    1  UNL1        0.1424
     24 F          65.2032   91.6159   13.0061 F       1  UNL1       -0.2041
     25 C          62.8589   90.5002   12.9071 C.ar    1  UNL1        0.0589
     26 C          61.6643   90.0552   12.1165 C.ar    1  UNL1        0.1384
     27 F          60.5146   89.3846   12.8082 F       1  UNL1       -0.2044
@<TRIPOS>BOND
     1     1     2    2
     2     2     9    1
     3     9    10   ar
     4    10    11   ar
     5    11    12   ar
     6    12    13   ar
     7    13    14   ar
     8    14    15   ar
     9    15    16   ar
    10    16    17   ar
    11     2     3   am
    12     3     4    1
    13     4     5    1
    14     5     6    1
    15     6    18    1
    16    18    19    1
    17    19    20    1
    18    20    21   ar
    19    21    22   ar
    20    22    23   ar
    21    23    24    1
    22    23    25   ar
    23    25    26   ar
    24    26    27    1
    25     6     7    1
    26     7     8    1
    27    17     9   ar
    28     8     3    1
    29    17    13   ar
    30    26    20   ar
@<TRIPOS>MOLECULE
*****
 27 30 0 0 0
SMALL
GASTEIGER

@<TRIPOS>ATOM
      1 O          65.0899   84.0372   15.0568 O.2     1  UNL1       -0.2698
      2 C          64.3555   84.4156   13.8047 C.2     1  UNL1        0.2520
      3 N          63.9894   85.8484   13.5539 N.am    1  UNL1       -0.2731
      4 C          63.2551   86.2267   12.3019 C.3     1  UNL1        0.1110
      5 C          62.8890   87.6597   12.0511 C.3     1  UNL1        0.0939
      6 N          63.2572   88.7141   13.0523 N.3     1  UNL1       -0.2695
      7 C          63.9916   88.3357   14.3044 C.3     1  UNL1        0.0939
      8 C          64.3577   86.9029   14.5552 C.3     1  UNL1        0.1110
      9 C          63.9873   83.3611   12.8035 C.ar    1  UNL1        0.0880
     10 C          64.4712   83.4694   11.3878 C.ar    1  UNL1        0.0091
     11 C          64.1030   82.4150   10.3866 C.ar    1  UNL1        0.0193
     12 C          63.2509   81.2521   10.8010 C.ar    1  UNL1        0.0815
     13 N          62.7670   81.1437   12.2166 N.ar    1  UNL1       -0.2873
     14 C          61.9197   80.1199   12.9121 C.ar    1  UNL1        0.1022
     15 C          61.7642   80.5416   14.3432 C.ar    1  UNL1        0.1195
     16 N          62.5154   81.8261   14.5322 N.ar    1  UNL1       -0.2247
     17 C          63.1352   82.1982   13.2179 C.ar    1  UNL1        0.1522
     18 C          62.8911   90.1470   12.8015 C.3     1  UNL1        0.0770
     19 C          63.8744   91.0679   12.1419 C.3     1  UNL1        0.0459
     20 C          64.8778   91.8125   12.9718 C.ar    1  UNL1        0.0068
     21 C          65.1817   91.3574   14.3684 C.ar    1  UNL1        0.0003
     22 C          66.1851   92.1021   15.1982 C.ar    1  UNL1        0.0295
     23 C          66.8846   93.3017   14.6315 C.ar    1  UNL1        0.1424
     24 F          67.8881   94.0464   15.4614 F       1  UNL1       -0.2041
     25 C          66.5808   93.7569   13.2348 C.ar    1  UNL1        0.0589
     26 C          65.5774   93.0123   12.4049 C.ar    1  UNL1        0.1384
     27 F          65.2735   93.4674   11.0083 F       1  UNL1       -0.2044
@<TRIPOS>BOND
     1     1     2    2
     2     2     9    1
     3     9    10   ar
     4    10    11   ar
     5    11    12   ar
     6    12    13   ar
     7    13    14   ar
     8    14    15   ar
     9    15    16   ar
    10    16    17   ar
    11     2     3   am
    12     3     4    1
    13     4     5    1
    14     5     6    1
    15     6    18    1
    16    18    19    1
    17    19    20    1
    18    20    21   ar
    19    21    22   ar
    20    22    23   ar
    21    23    24    1
    22    23    25   ar
    23    25    26   ar
    24    26    27    1
    25     6     7    1
    26     7     8    1
    27    17     9   ar
    28     8     3    1
    29    17    13   ar
    30    26    20   ar
@<TRIPOS>MOLECULE
*****
 27 30 0 0 0
SMALL
GASTEIGER

@<TRIPOS>ATOM
      1 O          64.6658   83.2541    9.8560 O.2     1  UNL1       -0.2698
      2 C          63.7391   83.9159   10.8325 C.2     1  UNL1        0.2520
      3 N          62.7892   84.9778   10.3635 N.am    1  UNL1       -0.2731
      4 C          61.8626   85.6395   11.3399 C.3     1  UNL1        0.1110
      5 C          60.9126   86.7015   10.8708 C.3     1  UNL1        0.0939
      6 N          60.8894   87.1017    9.4255 N.3     1  UNL1       -0.2695
      7 C          61.8162   86.4400    8.4490 C.3     1  UNL1        0.0939
      8 C          62.7661   85.3780    8.9180 C.3     1  UNL1        0.1110
      9 C          63.7623   83.5156   12.2779 C.ar    1  UNL1        0.0880
     10 C          64.2681   84.4753   13.3138 C.ar    1  UNL1        0.0091
     11 C          64.2914   84.0751   14.7592 C.ar    1  UNL1        0.0193
     12 C          63.8088   82.7151   15.1688 C.ar    1  UNL1        0.0815
     13 N          63.3029   81.7554   14.1328 N.ar    1  UNL1       -0.2873
     14 C          62.7674   80.3581   14.2356 C.ar    1  UNL1        0.1022
     15 C          62.4132   79.8947   12.8536 C.ar    1  UNL1        0.1195
     16 N          62.7298   81.0057   11.8968 N.ar    1  UNL1       -0.2247
     17 C          63.2797   82.1557   12.6874 C.ar    1  UNL1        0.1522
     18 C          59.9395   88.1637    8.9564 C.3     1  UNL1        0.0770
     19 C          60.1920   89.6014    9.3018 C.3     1  UNL1        0.0459
     20 C          61.2654   89.9587   10.2867 C.ar    1  UNL1        0.0068
     21 C          62.5937   90.4578    9.8003 C.ar    1  UNL1        0.0003
     22 C          63.6671   90.8151   10.7853 C.ar    1  UNL1        0.0295
     23 C          63.4123   90.6734   12.2566 C.ar    1  UNL1        0.1424
     24 F          64.4857   91.0307   13.2416 F       1  UNL1       -0.2041
     25 C          62.0839   90.1743   12.7430 C.ar    1  UNL1        0.0589
     26 C          61.0105   89.8170   11.7581 C.ar    1  UNL1        0.1384
     27 F          59.6822   89.3179   12.2446 F       1  UNL1       -0.2044
@<TRIPOS>BOND
     1     1     2    2
     2     2     9    1
     3     9    10   ar
     4    10    11   ar
     5    11    12   ar
     6    12    13   ar
     7    13    14   ar
     8    14    15   ar
     9    15    16   ar
    10    16    17   ar
    11     2     3   am
    12     3     4    1
    13     4     5    1
    14     5     6    1
    15     6    18    1
    16    18    19    1
    17    19    20    1
    18    20    21   ar
    19    21    22   ar
    20    22    23   ar
    21    23    24    1
    22    23    25   ar
    23    25    26   ar
    24    26    27    1
    25     6     7    1
    26     7     8    1
    27    17     9   ar
    28     8     3    1
    29    17    13   ar
    30    26    20   ar
@<TRIPOS>MOLECULE
*****
 27 30 0 0 0
SMALL
GASTEIGER

@<TRIPOS>ATOM
      1 O          63.1476   91.0660   14.3800 O.2     1  UNL1       -0.2698
      2 C          63.5118   91.0763   12.9248 C.2     1  UNL1        0.2520
      3 N          62.5939   90.4497   11.9175 N.am    1  UNL1       -0.2731
      4 C          62.9581   90.4600   10.4624 C.3     1  UNL1        0.1110
      5 C          62.0401   89.8334    9.4551 C.3     1  UNL1        0.0939
      6 N          60.7579   89.1966    9.9028 N.3     1  UNL1       -0.2695
      7 C          60.3937   89.1864   11.3579 C.3     1  UNL1        0.0939
      8 C          61.3117   89.8129   12.3653 C.3     1  UNL1        0.1110
      9 C          64.7940   91.7131   12.4771 C.ar    1  UNL1        0.0880
     10 C          64.9029   92.2901   11.0968 C.ar    1  UNL1        0.0091
     11 C          66.1850   92.9269   10.6491 C.ar    1  UNL1        0.0193
     12 C          67.3584   92.9868   11.5817 C.ar    1  UNL1        0.0815
     13 N          67.2495   92.4098   12.9620 N.ar    1  UNL1       -0.2873
     14 C          68.2302   92.3227   14.0936 C.ar    1  UNL1        0.1022
     15 C          67.5542   91.6320   15.2407 C.ar    1  UNL1        0.1195
     16 N          66.1556   91.2922   14.8181 N.ar    1  UNL1       -0.2247
     17 C          65.9673   91.7730   13.4097 C.ar    1  UNL1        0.1522
     18 C          59.8399   88.5700    8.8954 C.3     1  UNL1        0.0770
     19 C          59.7110   87.0773    8.8247 C.3     1  UNL1        0.0459
     20 C          60.9231   86.2108    8.9981 C.ar    1  UNL1        0.0068
     21 C          61.6543   85.6945    7.7945 C.ar    1  UNL1        0.0003
     22 C          62.8664   84.8280    7.9679 C.ar    1  UNL1        0.0295
     23 C          63.3472   84.4778    9.3449 C.ar    1  UNL1        0.1424
     24 F          64.5594   83.6113    9.5183 F       1  UNL1       -0.2041
     25 C          62.6160   84.9942   10.5485 C.ar    1  UNL1        0.0589
     26 C          61.4039   85.8606   10.3752 C.ar    1  UNL1        0.1384
     27 F          60.6727   86.3769   11.5788 F       1  UNL1       -0.2044
@<TRIPOS>BOND
     1     1     2    2
     2     2     9    1
     3     9    10   ar
     4    10    11   ar
     5    11    12   ar
     6    12    13   ar
     7    13    14   ar
     8    14    15   ar
     9    15    16   ar
    10    16    17   ar
    11     2     3   am
    12     3     4    1
    13     4     5    1
    14     5     6    1
    15     6    18    1
    16    18    19    1
    17    19    20    1
    18    20    21   ar
    19    21    22   ar
    20    22    23   ar
    21    23    24    1
    22    23    25   ar
    23    25    26   ar
    24    26    27    1
    25     6     7    1
    26     7     8    1
    27    17     9   ar
    28     8     3    1
    29    17    13   ar
    30    26    20   ar
@<TRIPOS>MOLECULE
*****
 27 30 0 0 0
SMALL
GASTEIGER

@<TRIPOS>ATOM
      1 O          65.0061   84.1732   15.2366 O.2     1  UNL1       -0.2698
      2 C          64.3078   84.5652   13.9682 C.2     1  UNL1        0.2520
      3 N          63.9856   86.0062   13.7039 N.am    1  UNL1       -0.2731
      4 C          63.2874   86.3981   12.4355 C.3     1  UNL1        0.1110
      5 C          62.9652   87.8391   12.1712 C.3     1  UNL1        0.0939
      6 N          63.3413   88.8880   13.1753 N.3     1  UNL1       -0.2695
      7 C          64.0395   88.4961   14.4437 C.3     1  UNL1        0.0939
      8 C          64.3617   87.0551   14.7080 C.3     1  UNL1        0.1110
      9 C          63.9318   83.5162   12.9641 C.ar    1  UNL1        0.0880
     10 C          64.5193   83.5537   11.5844 C.ar    1  UNL1        0.0091
     11 C          64.1433   82.5048   10.5804 C.ar    1  UNL1        0.0193
     12 C          63.1797   81.4182   10.9559 C.ar    1  UNL1        0.0815
     13 N          62.5922   81.3807   12.3355 N.ar    1  UNL1       -0.2873
     14 C          61.6243   80.4393   12.9889 C.ar    1  UNL1        0.1022
     15 C          61.4022   80.9065   14.3969 C.ar    1  UNL1        0.1195
     16 N          62.2327   82.1366   14.6136 N.ar    1  UNL1       -0.2247
     17 C          62.9682   82.4297   13.3396 C.ar    1  UNL1        0.1522
     18 C          63.0191   90.3291   12.9110 C.3     1  UNL1        0.0770
     19 C          63.9602   91.4039   13.3681 C.3     1  UNL1        0.0459
     20 C          65.0882   91.8402   12.4808 C.ar    1  UNL1        0.0068
     21 C          64.8180   92.2153   11.0538 C.ar    1  UNL1        0.0003
     22 C          65.9461   92.6515   10.1666 C.ar    1  UNL1        0.0295
     23 C          67.3442   92.7127   10.7062 C.ar    1  UNL1        0.1424
     24 F          68.4723   93.1489    9.8190 F       1  UNL1       -0.2041
     25 C          67.6144   92.3375   12.1333 C.ar    1  UNL1        0.0589
     26 C          66.4864   91.9013   13.0206 C.ar    1  UNL1        0.1384
     27 F          66.7566   91.5262   14.4476 F       1  UNL1       -0.2044
@<TRIPOS>BOND
     1     1     2    2
     2     2     9    1
     3     9    10   ar
     4    10    11   ar
     5    11    12   ar
     6    12    13   ar
     7    13    14   ar
     8    14    15   ar
     9    15    16   ar
    10    16    17   ar
    11     2     3   am
    12     3     4    1
    13     4     5    1
    14     5     6    1
    15     6    18    1
    16    18    19    1
    17    19    20    1
    18    20    21   ar
    19    21    22   ar
    20    22    23   ar
    21    23    24    1
    22    23    25   ar
    23    25    26   ar
    24    26    27    1
    25     6     7    1
    26     7     8    1
    27    17     9   ar
    28     8     3    1
    29    17    13   ar
    30    26    20   ar
