@<TRIPOS>MOLECULE
*****
 46 51 0 0 0
SMALL
GASTEIGER

@<TRIPOS>ATOM
      1 C          64.3296   89.9101   13.3389 C.ar    1  UNL1        0.1348
      2 C          63.6186   90.7146   12.2915 C.ar    1  UNL1        0.0346
      3 C          62.7616   90.0264   11.2707 C.ar    1  UNL1        0.0065
      4 C          62.6156   88.5338   11.2973 C.ar    1  UNL1        0.0432
      5 C          63.3266   87.7293   12.3448 C.ar    1  UNL1        0.1256
      6 N          64.1836   88.4174   13.3656 N.ar    1  UNL1       -0.2222
      7 C          61.7586   87.8457   10.2765 C.ar    1  UNL1        0.0850
      8 C          60.2734   87.9939   10.1279 C.ar    1  UNL1        0.0992
      9 N          59.8332   87.1284    8.9846 N.ar    1  UNL1       -0.2265
     10 C          61.0465   86.4453    8.4265 C.ar    1  UNL1        0.1474
     11 C          61.2214   85.4768    7.2945 C.ar    1  UNL1        0.0332
     12 C          62.5863   84.9517    6.9609 C.ar    1  UNL1       -0.0174
     13 C          62.7613   83.9832    5.8289 C.3     1  UNL1        0.0312
     14 C          63.7763   85.3950    7.7593 C.ar    1  UNL1        0.0149
     15 C          63.6014   86.3635    8.8914 C.ar    1  UNL1        0.0811
     16 N          62.2364   86.8886    9.2250 N.ar    1  UNL1       -0.2888
     17 C          59.3843   88.8562   10.9741 C.ar    1  UNL1        0.0253
     18 C          59.4475   90.3497   10.8480 C.ar    1  UNL1        0.0224
     19 C          58.5584   91.2120   11.6942 C.ar    1  UNL1        0.1021
     20 N          57.6062   90.5810   12.6664 N.ar    1  UNL1       -0.2101
     21 C          57.5431   89.0876   12.7924 C.ar    1  UNL1        0.2250
     22 C          58.4322   88.2253   11.9462 C.ar    1  UNL1        0.0593
     23 O          56.5910   88.4566   13.7646 O.3     1  UNL1       -0.4561
     24 C          55.5229   87.5259   13.2717 C.3     1  UNL1        0.2542
     25 C          66.1634   91.6526   13.9310 C.2     1  UNL1        0.2414
     26 O          66.2832   92.0191   12.4813 O.2     1  UNL1       -0.2733
     27 N          65.1866   90.5982   14.3598 N.am    1  UNL1       -0.2682
     28 H          65.1079   90.3577   15.3112 H       1  UNL1        0.1563
     29 C          67.0204   92.3408   14.9518 C.3     1  UNL1        0.1319
     30 C          66.4506   92.6948   16.2935 C.3     1  UNL1        0.0270
     31 C          69.2422   93.5410   15.5623 C.3     1  UNL1        0.0862
     32 N          68.4470   92.6748   14.6310 N.3     1  UNL1       -0.2902
     33 H          68.9467   91.7889   14.5542 H       1  UNL1        0.1237
     34 C          63.1806   86.2366   12.3714 C.1     1  UNL1       -0.0404
     35 C          63.0347   84.7440   12.3981 C.1     1  UNL1       -0.0583
     36 C          62.8887   83.2513   12.4248 C.ar    1  UNL1        0.0420
     37 C          62.6248   82.5466   13.7224 C.ar    1  UNL1        0.0083
     38 C          62.4789   81.0540   13.7490 C.ar    1  UNL1        0.0018
     39 C          62.5968   80.2661   12.4781 C.ar    1  UNL1        0.0137
     40 C          62.4508   78.7734   12.5048 C.ar    1  UNL1        0.0594
     41 C          62.1870   78.0687   13.8023 C.3     1  UNL1        0.0521
     42 N          62.5688   77.9855   11.2338 N.ar    1  UNL1       -0.2481
     43 C          62.8327   78.6903    9.9362 C.ar    1  UNL1        0.0984
     44 C          62.9786   80.1829    9.9096 C.ar    1  UNL1        0.0207
     45 C          62.8607   80.9708   11.1805 C.ar    1  UNL1        0.0033
     46 C          63.0067   82.4634   11.1539 C.ar    1  UNL1        0.0083
@<TRIPOS>BOND
     1    31    32    1
     2    32    29    1
     3    29    30    1
     4    29    25    1
     5    25    26    2
     6    25    27   am
     7    27     1    1
     8     1     2   ar
     9     2     3   ar
    10     3     4   ar
    11     4     7    1
    12     7     8   ar
    13     8    17    1
    14    17    18   ar
    15    18    19   ar
    16    19    20   ar
    17    20    21   ar
    18    21    23    1
    19    23    24    1
    20    21    22   ar
    21     8     9   ar
    22     9    10   ar
    23    10    11   ar
    24    11    12   ar
    25    12    13    1
    26    12    14   ar
    27    14    15   ar
    28    15    16   ar
    29     4     5   ar
    30     5    34    1
    31    34    35    3
    32    35    36    1
    33    36    37   ar
    34    37    38   ar
    35    38    39   ar
    36    39    40   ar
    37    40    41    1
    38    40    42   ar
    39    42    43   ar
    40    43    44   ar
    41    44    45   ar
    42    45    46   ar
    43     5     6   ar
    44     6     1   ar
    45    16     7   ar
    46    46    36   ar
    47    22    17   ar
    48    16    10   ar
    49    45    39   ar
    50    32    33    1
    51    27    28    1
@<TRIPOS>MOLECULE
*****
 46 51 0 0 0
SMALL
GASTEIGER

@<TRIPOS>ATOM
      1 C          59.8341   89.9235    6.2689 C.ar    1  UNL1        0.1348
      2 C          59.3496   88.5047    6.3161 C.ar    1  UNL1        0.0346
      3 C          59.7539   87.6116    7.4514 C.ar    1  UNL1        0.0065
      4 C          60.6426   88.1372    8.5394 C.ar    1  UNL1        0.0432
      5 C          61.1270   89.5560    8.4922 C.ar    1  UNL1        0.1256
      6 N          60.7228   90.4492    7.3569 N.ar    1  UNL1       -0.2222
      7 C          61.0468   87.2441    9.6747 C.ar    1  UNL1        0.0850
      8 C          60.5746   87.3539   11.0942 C.ar    1  UNL1        0.0992
      9 N          61.2302   86.2620   11.8867 N.ar    1  UNL1       -0.2265
     10 C          62.1076   85.4773   10.9569 C.ar    1  UNL1        0.1474
     11 C          62.9952   84.2886   11.1785 C.ar    1  UNL1        0.0332
     12 C          63.7693   83.7068   10.0330 C.ar    1  UNL1       -0.0174
     13 C          64.6569   82.5180   10.2546 C.3     1  UNL1        0.0312
     14 C          63.6561   84.3137    8.6659 C.ar    1  UNL1        0.0149
     15 C          62.7685   85.5025    8.4444 C.ar    1  UNL1        0.0811
     16 N          61.9943   86.0843    9.5899 N.ar    1  UNL1       -0.2888
     17 C          59.6152   88.3761   11.6276 C.ar    1  UNL1        0.0253
     18 C          59.9238   89.8377   11.4908 C.ar    1  UNL1        0.0224
     19 C          58.9644   90.8600   12.0243 C.ar    1  UNL1        0.1021
     20 N          57.6964   90.4207   12.6945 N.ar    1  UNL1       -0.2101
     21 C          57.3878   88.9592   12.8313 C.ar    1  UNL1        0.2250
     22 C          58.3472   87.9370   12.2978 C.ar    1  UNL1        0.0593
     23 O          56.1198   88.5199   13.5015 O.3     1  UNL1       -0.4561
     24 C          55.7486   87.0668   13.5255 C.3     1  UNL1        0.2542
     25 C          60.4786   91.4838    4.2940 C.2     1  UNL1        0.2414
     26 O          61.9318   91.2578    4.5898 O.2     1  UNL1       -0.2733
     27 N          59.4298   90.8166    5.1336 N.am    1  UNL1       -0.2682
     28 H          58.4761   90.9650    4.9395 H       1  UNL1        0.1563
     29 C          60.0744   92.3770    3.1588 C.3     1  UNL1        0.1319
     30 C          58.6414   92.4278    2.7181 C.3     1  UNL1        0.0270
     31 C          61.9366   92.6304    1.3649 C.3     1  UNL1        0.0862
     32 N          61.1030   93.2192    2.4642 N.3     1  UNL1       -0.2902
     33 H          60.6090   94.0169    2.0641 H       1  UNL1        0.1237
     34 C          62.0158   90.0817    9.5803 C.1     1  UNL1       -0.0404
     35 C          62.9044   90.6075   10.6683 C.1     1  UNL1       -0.0583
     36 C          63.7932   91.1332   11.7564 C.ar    1  UNL1        0.0420
     37 C          65.0535   91.8673   11.4062 C.ar    1  UNL1        0.0083
     38 C          65.9421   92.3930   12.4942 C.ar    1  UNL1        0.0018
     39 C          65.5705   92.1846   13.9324 C.ar    1  UNL1        0.0137
     40 C          66.4592   92.7103   15.0205 C.ar    1  UNL1        0.0594
     41 C          67.7195   93.4444   14.6703 C.3     1  UNL1        0.0521
     42 N          66.0876   92.5018   16.4587 N.ar    1  UNL1       -0.2481
     43 C          64.8272   91.7677   16.8089 C.ar    1  UNL1        0.0984
     44 C          63.9386   91.2420   15.7208 C.ar    1  UNL1        0.0207
     45 C          64.3102   91.4504   14.2826 C.ar    1  UNL1        0.0033
     46 C          63.4215   90.9247   13.1946 C.ar    1  UNL1        0.0083
@<TRIPOS>BOND
     1    31    32    1
     2    32    29    1
     3    29    30    1
     4    29    25    1
     5    25    26    2
     6    25    27   am
     7    27     1    1
     8     1     2   ar
     9     2     3   ar
    10     3     4   ar
    11     4     7    1
    12     7     8   ar
    13     8    17    1
    14    17    18   ar
    15    18    19   ar
    16    19    20   ar
    17    20    21   ar
    18    21    23    1
    19    23    24    1
    20    21    22   ar
    21     8     9   ar
    22     9    10   ar
    23    10    11   ar
    24    11    12   ar
    25    12    13    1
    26    12    14   ar
    27    14    15   ar
    28    15    16   ar
    29     4     5   ar
    30     5    34    1
    31    34    35    3
    32    35    36    1
    33    36    37   ar
    34    37    38   ar
    35    38    39   ar
    36    39    40   ar
    37    40    41    1
    38    40    42   ar
    39    42    43   ar
    40    43    44   ar
    41    44    45   ar
    42    45    46   ar
    43     5     6   ar
    44     6     1   ar
    45    16     7   ar
    46    46    36   ar
    47    22    17   ar
    48    16    10   ar
    49    45    39   ar
    50    32    33    1
    51    27    28    1
@<TRIPOS>MOLECULE
*****
 46 51 0 0 0
SMALL
GASTEIGER

@<TRIPOS>ATOM
      1 C          59.4547   89.4028    6.6981 C.ar    1  UNL1        0.1348
      2 C          59.1064   87.9460    6.7780 C.ar    1  UNL1        0.0346
      3 C          59.6712   87.0991    7.8797 C.ar    1  UNL1        0.0065
      4 C          60.5843   87.7090    8.9015 C.ar    1  UNL1        0.0432
      5 C          60.9326   89.1658    8.8217 C.ar    1  UNL1        0.1256
      6 N          60.3678   90.0127    7.7200 N.ar    1  UNL1       -0.2222
      7 C          61.1492   86.8621   10.0032 C.ar    1  UNL1        0.0850
      8 C          60.8525   87.0062   11.4665 C.ar    1  UNL1        0.0992
      9 N          61.6298   85.9556   12.2027 N.ar    1  UNL1       -0.2265
     10 C          62.4069   85.1622   11.1944 C.ar    1  UNL1        0.1474
     11 C          63.3466   84.0020   11.3385 C.ar    1  UNL1        0.0332
     12 C          63.9893   83.4020   10.1231 C.ar    1  UNL1       -0.0174
     13 C          64.9290   82.2418   10.2672 C.3     1  UNL1        0.0312
     14 C          63.6923   83.9623    8.7637 C.ar    1  UNL1        0.0149
     15 C          62.7526   85.1225    8.6197 C.ar    1  UNL1        0.0811
     16 N          62.1098   85.7225    9.8351 N.ar    1  UNL1       -0.2888
     17 C          59.9389   88.0224   12.0850 C.ar    1  UNL1        0.0253
     18 C          59.3079   87.7506   13.4186 C.ar    1  UNL1        0.0224
     19 C          58.3943   88.7669   14.0371 C.ar    1  UNL1        0.1021
     20 N          58.1116   90.0548   13.3222 N.ar    1  UNL1       -0.2101
     21 C          58.7425   90.3266   11.9887 C.ar    1  UNL1        0.2250
     22 C          59.6561   89.3103   11.3702 C.ar    1  UNL1        0.0593
     23 O          58.4597   91.6146   11.2738 O.3     1  UNL1       -0.4561
     24 C          58.2322   92.8731   12.0575 C.3     1  UNL1        0.2542
     25 C          59.7812   91.1910    4.8419 C.2     1  UNL1        0.2414
     26 O          61.2375   91.2855    5.1890 O.2     1  UNL1       -0.2733
     27 N          58.8898   90.2497    5.5964 N.am    1  UNL1       -0.2682
     28 H          57.9341   90.1877    5.3686 H       1  UNL1        0.1563
     29 C          59.2164   92.0379    3.7402 C.3     1  UNL1        0.1319
     30 C          60.1352   92.8222    2.8508 C.3     1  UNL1        0.0270
     31 C          56.7997   91.8563    4.6766 C.3     1  UNL1        0.0862
     32 N          57.7328   92.1006    3.5278 N.3     1  UNL1       -0.2902
     33 H          57.5253   93.0342    3.1733 H       1  UNL1        0.1237
     34 C          61.8458   89.7758    9.8435 C.1     1  UNL1       -0.0404
     35 C          62.7588   90.3857   10.8654 C.1     1  UNL1       -0.0583
     36 C          63.6720   90.9957   11.8872 C.ar    1  UNL1        0.0420
     37 C          64.8719   91.7809   11.4472 C.ar    1  UNL1        0.0083
     38 C          65.7850   92.3909   12.4691 C.ar    1  UNL1        0.0018
     39 C          65.4981   92.2156   13.9310 C.ar    1  UNL1        0.0137
     40 C          66.4113   92.8255   14.9528 C.ar    1  UNL1        0.0594
     41 C          67.6112   93.6108   14.5128 C.3     1  UNL1        0.0521
     42 N          66.1245   92.6502   16.4147 N.ar    1  UNL1       -0.2481
     43 C          64.9245   91.8649   16.8547 C.ar    1  UNL1        0.0984
     44 C          64.0114   91.2550   15.8328 C.ar    1  UNL1        0.0207
     45 C          64.2983   91.4303   14.3709 C.ar    1  UNL1        0.0033
     46 C          63.3852   90.8204   13.3491 C.ar    1  UNL1        0.0083
@<TRIPOS>BOND
     1    31    32    1
     2    32    29    1
     3    29    30    1
     4    29    25    1
     5    25    26    2
     6    25    27   am
     7    27     1    1
     8     1     2   ar
     9     2     3   ar
    10     3     4   ar
    11     4     7    1
    12     7     8   ar
    13     8    17    1
    14    17    18   ar
    15    18    19   ar
    16    19    20   ar
    17    20    21   ar
    18    21    23    1
    19    23    24    1
    20    21    22   ar
    21     8     9   ar
    22     9    10   ar
    23    10    11   ar
    24    11    12   ar
    25    12    13    1
    26    12    14   ar
    27    14    15   ar
    28    15    16   ar
    29     4     5   ar
    30     5    34    1
    31    34    35    3
    32    35    36    1
    33    36    37   ar
    34    37    38   ar
    35    38    39   ar
    36    39    40   ar
    37    40    41    1
    38    40    42   ar
    39    42    43   ar
    40    43    44   ar
    41    44    45   ar
    42    45    46   ar
    43     5     6   ar
    44     6     1   ar
    45    16     7   ar
    46    46    36   ar
    47    22    17   ar
    48    16    10   ar
    49    45    39   ar
    50    32    33    1
    51    27    28    1
@<TRIPOS>MOLECULE
*****
 46 51 0 0 0
SMALL
GASTEIGER

@<TRIPOS>ATOM
      1 C          59.3176   89.3588    6.6829 C.ar    1  UNL1        0.1348
      2 C          58.9539   87.9069    6.7804 C.ar    1  UNL1        0.0346
      3 C          59.5504   87.0552    7.8615 C.ar    1  UNL1        0.0065
      4 C          60.5106   87.6555    8.8452 C.ar    1  UNL1        0.0432
      5 C          60.8743   89.1074    8.7477 C.ar    1  UNL1        0.1256
      6 N          60.2778   89.9591    7.6666 N.ar    1  UNL1       -0.2222
      7 C          61.1070   86.8038    9.9263 C.ar    1  UNL1        0.0850
      8 C          60.8638   86.9503   11.3992 C.ar    1  UNL1        0.0992
      9 N          61.6579   85.8931   12.1076 N.ar    1  UNL1       -0.2265
     10 C          62.3920   85.0933   11.0725 C.ar    1  UNL1        0.1474
     11 C          63.3264   83.9251   11.1833 C.ar    1  UNL1        0.0332
     12 C          63.9204   83.3199    9.9461 C.ar    1  UNL1       -0.0174
     13 C          64.8548   82.1517   10.0569 C.3     1  UNL1        0.0312
     14 C          63.5800   83.8827    8.5979 C.ar    1  UNL1        0.0149
     15 C          62.6455   85.0508    8.4871 C.ar    1  UNL1        0.0811
     16 N          62.0515   85.6561    9.7244 N.ar    1  UNL1       -0.2888
     17 C          59.9814   87.9742   12.0496 C.ar    1  UNL1        0.0253
     18 C          60.5577   89.2841   12.4991 C.ar    1  UNL1        0.0224
     19 C          59.6752   90.3080   13.1494 C.ar    1  UNL1        0.1021
     20 N          58.2165   90.0220   13.3503 N.ar    1  UNL1       -0.2101
     21 C          57.6403   88.7121   12.9008 C.ar    1  UNL1        0.2250
     22 C          58.5227   87.6882   12.2504 C.ar    1  UNL1        0.0593
     23 O          56.1816   88.4261   13.1017 O.3     1  UNL1       -0.4561
     24 C          55.7500   87.1329   13.7272 C.3     1  UNL1        0.2542
     25 C          59.5876   91.1654    4.8354 C.2     1  UNL1        0.2414
     26 O          61.0506   91.2687    5.1501 O.2     1  UNL1       -0.2733
     27 N          58.7211   90.2105    5.6018 N.am    1  UNL1       -0.2682
     28 H          57.7609   90.1428    5.3952 H       1  UNL1        0.1563
     29 C          58.9911   92.0171    3.7542 C.3     1  UNL1        0.1319
     30 C          59.8848   92.7510    2.7988 C.3     1  UNL1        0.0270
     31 C          56.6182   91.7407    4.7753 C.3     1  UNL1        0.0862
     32 N          57.5011   92.1349    3.6285 N.3     1  UNL1       -0.2902
     33 H          57.2993   93.1137    3.4245 H       1  UNL1        0.1237
     34 C          61.8345   89.7078    9.7315 C.1     1  UNL1       -0.0404
     35 C          62.7946   90.3081   10.7151 C.1     1  UNL1       -0.0583
     36 C          63.7549   90.9085   11.6989 C.ar    1  UNL1        0.0420
     37 C          64.0807   90.1801   12.9690 C.ar    1  UNL1        0.0083
     38 C          65.0408   90.7804   13.9526 C.ar    1  UNL1        0.0018
     39 C          65.6752   92.1092   13.6661 C.ar    1  UNL1        0.0137
     40 C          66.6354   92.7095   14.6499 C.ar    1  UNL1        0.0594
     41 C          66.9612   91.9811   15.9200 C.3     1  UNL1        0.0521
     42 N          67.2698   94.0382   14.3634 N.ar    1  UNL1       -0.2481
     43 C          66.9440   94.7666   13.0931 C.ar    1  UNL1        0.0984
     44 C          65.9838   94.1662   12.1095 C.ar    1  UNL1        0.0207
     45 C          65.3494   92.8375   12.3960 C.ar    1  UNL1        0.0033
     46 C          64.3892   92.2372   11.4124 C.ar    1  UNL1        0.0083
@<TRIPOS>BOND
     1    31    32    1
     2    32    29    1
     3    29    30    1
     4    29    25    1
     5    25    26    2
     6    25    27   am
     7    27     1    1
     8     1     2   ar
     9     2     3   ar
    10     3     4   ar
    11     4     7    1
    12     7     8   ar
    13     8    17    1
    14    17    18   ar
    15    18    19   ar
    16    19    20   ar
    17    20    21   ar
    18    21    23    1
    19    23    24    1
    20    21    22   ar
    21     8     9   ar
    22     9    10   ar
    23    10    11   ar
    24    11    12   ar
    25    12    13    1
    26    12    14   ar
    27    14    15   ar
    28    15    16   ar
    29     4     5   ar
    30     5    34    1
    31    34    35    3
    32    35    36    1
    33    36    37   ar
    34    37    38   ar
    35    38    39   ar
    36    39    40   ar
    37    40    41    1
    38    40    42   ar
    39    42    43   ar
    40    43    44   ar
    41    44    45   ar
    42    45    46   ar
    43     5     6   ar
    44     6     1   ar
    45    16     7   ar
    46    46    36   ar
    47    22    17   ar
    48    16    10   ar
    49    45    39   ar
    50    32    33    1
    51    27    28    1
@<TRIPOS>MOLECULE
*****
 46 51 0 0 0
SMALL
GASTEIGER

@<TRIPOS>ATOM
      1 C          64.2613   89.7547   13.4298 C.ar    1  UNL1        0.1348
      2 C          63.4656   90.6414   12.5185 C.ar    1  UNL1        0.0346
      3 C          62.5786   90.0371   11.4706 C.ar    1  UNL1        0.0065
      4 C          62.4874   88.5461   11.3341 C.ar    1  UNL1        0.0432
      5 C          63.2831   87.6595   12.2454 C.ar    1  UNL1        0.1256
      6 N          64.1701   88.2638   13.2933 N.ar    1  UNL1       -0.2222
      7 C          61.6004   87.9418   10.2862 C.ar    1  UNL1        0.0850
      8 C          60.1337   88.2046   10.1140 C.ar    1  UNL1        0.0992
      9 N          59.6512   87.3939    8.9479 N.ar    1  UNL1       -0.2265
     10 C          60.8197   86.6299    8.3993 C.ar    1  UNL1        0.1474
     11 C          60.9425   85.6697    7.2535 C.ar    1  UNL1        0.0332
     12 C          62.2699   85.0481    6.9349 C.ar    1  UNL1       -0.0174
     13 C          62.3926   84.0879    5.7891 C.3     1  UNL1        0.0312
     14 C          63.4746   85.3867    7.7619 C.ar    1  UNL1        0.0149
     15 C          63.3519   86.3470    8.9077 C.ar    1  UNL1        0.0811
     16 N          62.0244   86.9686    9.2264 N.ar    1  UNL1       -0.2888
     17 C          59.2964   89.1179   10.9595 C.ar    1  UNL1        0.0253
     18 C          58.3386   88.5442   11.9614 C.ar    1  UNL1        0.0224
     19 C          57.5014   89.4575   12.8069 C.ar    1  UNL1        0.1021
     20 N          57.6218   90.9444   12.6506 N.ar    1  UNL1       -0.2101
     21 C          58.5795   91.5181   11.6488 C.ar    1  UNL1        0.2250
     22 C          59.4167   90.6048   10.8033 C.ar    1  UNL1        0.0593
     23 O          58.6999   93.0051   11.4925 O.3     1  UNL1       -0.4561
     24 C          57.8112   93.9170   12.2853 C.3     1  UNL1        0.2542
     25 C          66.1298   91.4297   14.1031 C.2     1  UNL1        0.2414
     26 O          66.2243   91.8961   12.6806 O.2     1  UNL1       -0.2733
     27 N          65.1483   90.3590   14.4777 N.am    1  UNL1       -0.2682
     28 H          65.0863   90.0529   15.4114 H       1  UNL1        0.1563
     29 C          67.0168   92.0340   15.1510 C.3     1  UNL1        0.1319
     30 C          66.4161   92.6271   16.3910 C.3     1  UNL1        0.0270
     31 C          69.3276   93.1550   15.5427 C.3     1  UNL1        0.0862
     32 N          68.5044   92.0453   14.9590 N.3     1  UNL1       -0.2902
     33 H          68.8591   91.1753   15.3560 H       1  UNL1        0.1237
     34 C          63.1920   86.1684   12.1088 C.1     1  UNL1       -0.0404
     35 C          63.1007   84.6775   11.9723 C.1     1  UNL1       -0.0583
     36 C          63.0095   83.1865   11.8358 C.ar    1  UNL1        0.0420
     37 C          63.2780   82.5369   10.5107 C.ar    1  UNL1        0.0083
     38 C          63.1868   81.0459   10.3742 C.ar    1  UNL1        0.0018
     39 C          62.8272   80.2045   11.5628 C.ar    1  UNL1        0.0137
     40 C          62.7360   78.7135   11.4262 C.ar    1  UNL1        0.0594
     41 C          63.0045   78.0639   10.1011 C.3     1  UNL1        0.0521
     42 N          62.3763   77.8721   12.6148 N.ar    1  UNL1       -0.2481
     43 C          62.1078   78.5218   13.9400 C.ar    1  UNL1        0.0984
     44 C          62.1990   80.0128   14.0765 C.ar    1  UNL1        0.0207
     45 C          62.5587   80.8541   12.8879 C.ar    1  UNL1        0.0033
     46 C          62.6499   82.3451   13.0243 C.ar    1  UNL1        0.0083
@<TRIPOS>BOND
     1    31    32    1
     2    32    29    1
     3    29    30    1
     4    29    25    1
     5    25    26    2
     6    25    27   am
     7    27     1    1
     8     1     2   ar
     9     2     3   ar
    10     3     4   ar
    11     4     7    1
    12     7     8   ar
    13     8    17    1
    14    17    18   ar
    15    18    19   ar
    16    19    20   ar
    17    20    21   ar
    18    21    23    1
    19    23    24    1
    20    21    22   ar
    21     8     9   ar
    22     9    10   ar
    23    10    11   ar
    24    11    12   ar
    25    12    13    1
    26    12    14   ar
    27    14    15   ar
    28    15    16   ar
    29     4     5   ar
    30     5    34    1
    31    34    35    3
    32    35    36    1
    33    36    37   ar
    34    37    38   ar
    35    38    39   ar
    36    39    40   ar
    37    40    41    1
    38    40    42   ar
    39    42    43   ar
    40    43    44   ar
    41    44    45   ar
    42    45    46   ar
    43     5     6   ar
    44     6     1   ar
    45    16     7   ar
    46    46    36   ar
    47    22    17   ar
    48    16    10   ar
    49    45    39   ar
    50    32    33    1
    51    27    28    1
