@<TRIPOS>MOLECULE
*****
 68 76 0 0 0
SMALL
GASTEIGER

@<TRIPOS>ATOM
      1 N          66.6408   90.3351   14.3727 N.3     1  UNL1       -0.1862
      2 C          67.1491   89.1038   15.0623 C.3     1  UNL1        0.1775
      3 C          66.3103   87.8607   15.0925 C.2     1  UNL1        0.2452
      4 O          66.8187   86.6294   15.7822 O.2     1  UNL1       -0.2732
      5 N          64.9631   87.8487   14.4331 N.am    1  UNL1       -0.2541
      6 C          64.1243   86.6056   14.4634 C.3     1  UNL1        0.1577
      7 C          62.7770   86.5936   13.8040 C.2     1  UNL1        0.2445
      8 O          61.9382   85.3505   13.8342 O.2     1  UNL1       -0.2731
      9 N          62.2686   87.8249   13.1143 N.am    1  UNL1       -0.2705
     10 C          63.1074   89.0681   13.0841 C.3     1  UNL1        0.1359
     11 C          64.4547   89.0800   13.7435 C.3     1  UNL1        0.1908
     12 N          65.2935   90.3231   13.7133 N.am    1  UNL1       -0.1863
     13 C          64.7851   91.5544   13.0237 C.2     1  UNL1        0.3191
     14 O          63.4379   91.5425   12.3643 O.2     1  UNL1       -0.2512
     15 N          65.6239   92.7976   12.9934 N.am    1  UNL1       -0.2836
     16 H          66.5082   92.8054   13.4262 H       1  UNL1        0.1513
     17 C          67.4796   91.5782   14.3425 C.3     1  UNL1        0.1188
     18 C          68.8262   93.3432   15.6921 C.2     1  UNL1       -0.0034
     19 C          67.6838   92.3758   15.5963 C.2     1  UNL1       -0.0071
     20 C          64.6326   85.3744   15.1530 C.3     1  UNL1        0.0556
     21 C          64.2293   84.0170   14.6582 C.ar    1  UNL1       -0.0198
     22 C          64.7264   83.5240   13.3316 C.ar    1  UNL1       -0.0011
     23 C          64.3231   82.1666   12.8368 C.ar    1  UNL1        0.0363
     24 C          63.4226   81.3022   13.6686 C.ar    1  UNL1        0.1337
     25 O          63.0193   79.9448   13.1738 O.3     1  UNL1       -0.5055
     26 C          62.9254   81.7951   14.9952 C.ar    1  UNL1        0.0363
     27 C          63.3288   83.1525   15.4900 C.ar    1  UNL1       -0.0011
     28 H          63.3299   79.6369   12.3451 H       1  UNL1        0.2922
     29 C          60.9214   87.8130   12.4549 C.3     1  UNL1        0.1217
     30 C          60.5852   88.8424   11.4170 C.ar    1  UNL1        0.0135
     31 C          60.3023   90.2571   11.8278 C.ar    1  UNL1       -0.0012
     32 C          59.9661   91.2865   10.7899 C.ar    1  UNL1       -0.0002
     33 C          59.9129   90.9013    9.3412 C.ar    1  UNL1        0.0016
     34 C          60.1958   89.4866    8.9304 C.ar    1  UNL1        0.0214
     35 C          60.2180   88.8165    7.5886 C.ar    1  UNL1        0.0722
     36 C          60.5679   87.3729    7.7973 C.ar    1  UNL1        0.0805
     37 N          60.7619   87.1508    9.2679 N.ar    1  UNL1       -0.3241
     38 C          61.1226   85.8507    9.9233 C.3     1  UNL1        0.1305
     39 C          60.5319   88.4572    9.9683 C.ar    1  UNL1        0.0577
     40 C          59.9392   89.4744    6.2697 C.2     1  UNL1        0.2510
     41 O          58.8509   88.9459    5.3831 O.2     1  UNL1       -0.2698
     42 N          60.7488   90.6609    5.8375 N.am    1  UNL1       -0.2791
     43 H          61.4631   91.0078    6.4195 H       1  UNL1        0.1552
     44 C          60.4701   91.3189    4.5187 C.ar    1  UNL1        0.0701
     45 C          61.5394   91.3759    3.4682 C.ar    1  UNL1        0.0191
     46 C          61.2608   92.0338    2.1494 C.ar    1  UNL1        0.0356
     47 C          59.9129   92.6349    1.8810 C.ar    1  UNL1        0.1319
     48 N          58.8437   92.5779    2.9314 N.ar    1  UNL1       -0.2279
     49 C          59.1223   91.9200    4.2503 C.ar    1  UNL1        0.1149
     50 N          59.6342   93.2929    0.5621 N.pl3   1  UNL1       -0.2904
     51 C          59.1039   94.6293    0.1346 C.3     1  UNL1        0.1098
     52 C          59.2401   94.2235   -1.3030 C.3     1  UNL1        0.0974
     53 C          59.7704   92.8872   -0.8756 C.3     1  UNL1        0.1098
     54 N          58.9614   94.8815   -2.6218 N.3     1  UNL1       -0.2708
     55 C          59.9631   95.8279   -3.2143 C.3     1  UNL1        0.0747
     56 C          59.6845   96.4859   -4.5332 C.3     1  UNL1        0.0469
     57 C          58.4041   96.1977   -5.2595 C.3     1  UNL1        0.1181
     58 C          57.4024   95.2513   -4.6671 C.3     1  UNL1        0.0469
     59 C          57.6810   94.5932   -3.3481 C.3     1  UNL1        0.0747
     60 O          58.1254   96.8556   -6.5784 O.3     1  UNL1       -0.3535
     61 C          57.1922   96.2073   -7.5575 C.3     1  UNL1        0.1740
     62 C          65.1156   94.0288   12.3038 C.3     1  UNL1        0.1177
     63 C          65.7793   94.5138   11.0492 C.ar    1  UNL1       -0.0025
     64 C          66.8548   93.6914   10.4036 C.ar    1  UNL1       -0.0026
     65 C          67.5185   94.1765    9.1489 C.ar    1  UNL1       -0.0003
     66 C          67.1068   95.4840    8.5399 C.ar    1  UNL1       -0.0000
     67 C          66.0312   96.3064    9.1855 C.ar    1  UNL1       -0.0003
     68 C          65.3675   95.8214   10.4402 C.ar    1  UNL1       -0.0026
@<TRIPOS>BOND
     1    18    19    2
     2    19    17    1
     3    17     1    1
     4     1     2    1
     5     2     3    1
     6     3     4    2
     7     3     5   am
     8     5     6    1
     9     6    20    1
    10    20    21    1
    11    21    22   ar
    12    22    23   ar
    13    23    24   ar
    14    24    25    1
    15    24    26   ar
    16    26    27   ar
    17     6     7    1
    18     7     8    2
    19     7     9   am
    20     9    29    1
    21    29    30    1
    22    30    31   ar
    23    31    32   ar
    24    32    33   ar
    25    33    34   ar
    26    34    35   ar
    27    35    40    1
    28    40    41    2
    29    40    42   am
    30    42    44    1
    31    44    45   ar
    32    45    46   ar
    33    46    47   ar
    34    47    50    1
    35    50    51    1
    36    51    52    1
    37    52    54    1
    38    54    55    1
    39    55    56    1
    40    56    57    1
    41    57    60    1
    42    60    61    1
    43    57    58    1
    44    58    59    1
    45    52    53    1
    46    47    48   ar
    47    48    49   ar
    48    35    36   ar
    49    36    37   ar
    50    37    38    1
    51    37    39   ar
    52     9    10    1
    53    11    10    1
    54    11    12    1
    55    12    13   am
    56    13    14    2
    57    13    15   am
    58    15    62    1
    59    62    63    1
    60    63    64   ar
    61    64    65   ar
    62    65    66   ar
    63    66    67   ar
    64    67    68   ar
    65    12     1    1
    66    68    63   ar
    67    11     5    1
    68    27    21   ar
    69    39    30   ar
    70    39    34   ar
    71    49    44   ar
    72    53    50    1
    73    59    54    1
    74    25    28    1
    75    42    43    1
    76    15    16    1
