@<TRIPOS>MOLECULE
*****
 29 32 0 0 0
SMALL
GASTEIGER

@<TRIPOS>ATOM
      1 C          62.5784   90.2903   13.1971 C.ar    1  UNL1        0.1345
      2 C          63.5582   91.0801   12.3808 C.ar    1  UNL1        0.0484
      3 C          64.8255   91.5807   13.0080 C.ar    1  UNL1        0.0449
      4 C          65.1129   91.2916   14.4515 C.ar    1  UNL1        0.0098
      5 C          64.1332   90.5019   15.2678 C.ar    1  UNL1        0.0972
      6 N          62.8659   90.0012   14.6406 N.ar    1  UNL1       -0.2293
      7 C          66.3802   91.7923   15.0787 C.3     1  UNL1        0.0251
      8 C          67.8730   91.7361   15.2141 C.3     1  UNL1        0.0048
      9 C          67.0824   92.7156   16.0298 C.3     1  UNL1        0.0048
     10 N          61.3112   89.7897   12.5698 N.pl3   1  UNL1       -0.2821
     11 H          60.4394   90.0982   12.9077 H       1  UNL1        0.1551
     12 C          61.4940   86.8780    9.1437 C.ar    1  UNL1        0.1683
     13 C          62.2054   86.5707   10.4279 C.ar    1  UNL1        0.1299
     14 N          62.1445   87.5412   11.5700 N.ar    1  UNL1       -0.2251
     15 C          61.3721   88.8192   11.4278 C.ar    1  UNL1        0.1527
     16 C          60.6606   89.1265   10.1435 C.ar    1  UNL1        0.1340
     17 N          60.7216   88.1560    9.0015 N.ar    1  UNL1       -0.2290
     18 N          61.6158   84.9369    6.8596 N.1     1  UNL1       -0.1892
     19 C          61.5549   85.9075    8.0016 C.1     1  UNL1        0.1214
     20 N          65.8053   92.3705   12.1917 N.pl3   1  UNL1       -0.3308
     21 H          66.6955   92.5787   12.5570 H       1  UNL1        0.1469
     22 C          65.4288   92.8430   10.8187 C.3     1  UNL1        0.1184
     23 C          66.0495   94.0878   10.2575 C.3     1  UNL1        0.1503
     24 C          67.3330   94.0037    9.4858 C.3     1  UNL1        0.1003
     25 N          67.9537   95.2485    8.9246 N.3     1  UNL1       -0.2933
     26 C          67.2909   96.5777    9.1351 C.3     1  UNL1        0.1011
     27 C          66.0074   96.6618    9.9068 C.3     1  UNL1        0.1592
     28 O          65.3867   95.4169   10.4681 O.3     1  UNL1       -0.3516
     29 H          68.0268   95.1124    7.9164 H       1  UNL1        0.1234
@<TRIPOS>BOND
     1    18    19    3
     2    19    12    1
     3    12    13   ar
     4    13    14   ar
     5    14    15   ar
     6    15    10    1
     7    10     1    1
     8     1     2   ar
     9     2     3   ar
    10     3    20    1
    11    20    22    1
    12    23    22    1
    13    23    24    1
    14    24    25    1
    15    25    26    1
    16    26    27    1
    17    27    28    1
    18     3     4   ar
    19     4     7    1
    20     7     8    1
    21     8     9    1
    22     4     5   ar
    23     5     6   ar
    24    15    16   ar
    25    16    17   ar
    26    17    12   ar
    27     6     1   ar
    28    28    23    1
    29     9     7    1
    30    10    11    1
    31    20    21    1
    32    25    29    1
@<TRIPOS>MOLECULE
*****
 29 32 0 0 0
SMALL
GASTEIGER

@<TRIPOS>ATOM
      1 C          62.0249   89.4205   11.6788 C.ar    1  UNL1        0.1345
      2 C          62.3918   87.9872   11.9266 C.ar    1  UNL1        0.0484
      3 C          62.1662   86.9597   10.8573 C.ar    1  UNL1        0.0449
      4 C          61.5738   87.3653    9.5403 C.ar    1  UNL1        0.0098
      5 C          61.2069   88.7985    9.2926 C.ar    1  UNL1        0.0972
      6 N          61.4324   89.8261   10.3618 N.ar    1  UNL1       -0.2293
      7 C          61.3482   86.3377    8.4711 C.3     1  UNL1        0.0251
      8 C          61.8778   85.2577    7.5749 C.3     1  UNL1        0.0048
      9 C          60.4280   85.6379    7.5153 C.3     1  UNL1        0.0048
     10 N          62.2504   90.4480   12.7481 N.pl3   1  UNL1       -0.2821
     11 H          61.4835   90.8316   13.2317 H       1  UNL1        0.1551
     12 C          66.4324   91.7770   13.7451 C.ar    1  UNL1        0.1683
     13 C          65.7580   92.2887   12.5069 C.ar    1  UNL1        0.1299
     14 N          64.3640   91.8457   12.1746 N.ar    1  UNL1       -0.2251
     15 C          63.6444   90.8910   13.0804 C.ar    1  UNL1        0.1527
     16 C          64.3189   90.3793   14.3186 C.ar    1  UNL1        0.1340
     17 N          65.7129   90.8223   14.6510 N.ar    1  UNL1       -0.2290
     18 N          69.2205   92.6631   14.4099 N.1     1  UNL1       -0.1892
     19 C          67.8265   92.2201   14.0775 C.1     1  UNL1        0.1214
     20 N          62.5331   85.5265   11.1051 N.pl3   1  UNL1       -0.3308
     21 H          62.4723   84.8694   10.3745 H       1  UNL1        0.1469
     22 C          62.9926   85.0944   12.4660 C.3     1  UNL1        0.1184
     23 C          62.8055   83.6721   12.9043 C.3     1  UNL1        0.1503
     24 C          62.5238   83.3620   14.3446 C.3     1  UNL1        0.1003
     25 N          62.3367   81.9398   14.7829 N.3     1  UNL1       -0.2933
     26 C          62.4313   80.8275   13.7808 C.3     1  UNL1        0.1011
     27 C          62.7130   81.1376   12.3405 C.3     1  UNL1        0.1592
     28 O          62.9001   82.5600   11.9022 O.3     1  UNL1       -0.3516
     29 H          61.4087   81.8804   15.2019 H       1  UNL1        0.1234
@<TRIPOS>BOND
     1    18    19    3
     2    19    12    1
     3    12    13   ar
     4    13    14   ar
     5    14    15   ar
     6    15    10    1
     7    10     1    1
     8     1     2   ar
     9     2     3   ar
    10     3    20    1
    11    20    22    1
    12    23    22    1
    13    23    24    1
    14    24    25    1
    15    25    26    1
    16    26    27    1
    17    27    28    1
    18     3     4   ar
    19     4     7    1
    20     7     8    1
    21     8     9    1
    22     4     5   ar
    23     5     6   ar
    24    15    16   ar
    25    16    17   ar
    26    17    12   ar
    27     6     1   ar
    28    28    23    1
    29     9     7    1
    30    10    11    1
    31    20    21    1
    32    25    29    1
@<TRIPOS>MOLECULE
*****
 29 32 0 0 0
SMALL
GASTEIGER

@<TRIPOS>ATOM
      1 C          61.4029   87.8393   10.7071 C.ar    1  UNL1        0.1345
      2 C          62.2238   86.5868   10.7935 C.ar    1  UNL1        0.0484
      3 C          62.3273   85.6745    9.6074 C.ar    1  UNL1        0.0449
      4 C          61.6099   86.0147    8.3347 C.ar    1  UNL1        0.0098
      5 C          60.7891   87.2672    8.2482 C.ar    1  UNL1        0.0972
      6 N          60.6856   88.1795    9.4344 N.ar    1  UNL1       -0.2293
      7 C          61.7134   85.1024    7.1485 C.3     1  UNL1        0.0251
      8 C          61.0707   84.1599    6.1746 C.3     1  UNL1        0.0048
      9 C          62.5355   84.4647    6.0680 C.3     1  UNL1        0.0048
     10 N          61.2995   88.7516   11.8932 N.pl3   1  UNL1       -0.2821
     11 H          60.5011   88.7223   12.4686 H       1  UNL1        0.1551
     12 C          64.6381   91.6223   12.8220 C.ar    1  UNL1        0.1683
     13 C          64.0429   90.7852   13.9151 C.ar    1  UNL1        0.1299
     14 N          62.9300   89.8283   13.6055 N.ar    1  UNL1       -0.2251
     15 C          62.4123   89.7085   12.2028 C.ar    1  UNL1        0.1527
     16 C          63.0075   90.5456   11.1097 C.ar    1  UNL1        0.1340
     17 N          64.1204   91.5025   11.4193 N.ar    1  UNL1       -0.2290
     18 N          66.8639   93.5361   13.4411 N.1     1  UNL1       -0.1892
     19 C          65.7510   92.5792   13.1315 C.1     1  UNL1        0.1214
     20 N          63.1481   84.4219    9.6939 N.pl3   1  UNL1       -0.3308
     21 H          63.1953   83.8102    8.9239 H       1  UNL1        0.1469
     22 C          63.8970   84.1015   10.9534 C.3     1  UNL1        0.1184
     23 C          63.2494   83.2687   12.0197 C.3     1  UNL1        0.1503
     24 C          62.9302   81.8271   11.7550 C.3     1  UNL1        0.1003
     25 N          62.2827   80.9943   12.8213 N.3     1  UNL1       -0.2933
     26 C          61.9542   81.6030   14.1524 C.3     1  UNL1        0.1011
     27 C          62.2734   83.0446   14.4171 C.3     1  UNL1        0.1592
     28 O          62.9210   83.8774   13.3507 O.3     1  UNL1       -0.3516
     29 H          62.9086   80.2096   13.0028 H       1  UNL1        0.1234
@<TRIPOS>BOND
     1    18    19    3
     2    19    12    1
     3    12    13   ar
     4    13    14   ar
     5    14    15   ar
     6    15    10    1
     7    10     1    1
     8     1     2   ar
     9     2     3   ar
    10     3    20    1
    11    20    22    1
    12    23    22    1
    13    23    24    1
    14    24    25    1
    15    25    26    1
    16    26    27    1
    17    27    28    1
    18     3     4   ar
    19     4     7    1
    20     7     8    1
    21     8     9    1
    22     4     5   ar
    23     5     6   ar
    24    15    16   ar
    25    16    17   ar
    26    17    12   ar
    27     6     1   ar
    28    28    23    1
    29     9     7    1
    30    10    11    1
    31    20    21    1
    32    25    29    1
@<TRIPOS>MOLECULE
*****
 29 32 0 0 0
SMALL
GASTEIGER

@<TRIPOS>ATOM
      1 C          62.0476   90.1947   11.4018 C.ar    1  UNL1        0.1345
      2 C          62.5477   90.0563   12.8093 C.ar    1  UNL1        0.0484
      3 C          63.7953   90.7716   13.2356 C.ar    1  UNL1        0.0449
      4 C          64.5428   91.6253   12.2546 C.ar    1  UNL1        0.0098
      5 C          64.0428   91.7637   10.8473 C.ar    1  UNL1        0.0972
      6 N          62.7952   91.0484   10.4208 N.ar    1  UNL1       -0.2293
      7 C          65.7905   92.3406   12.6811 C.3     1  UNL1        0.0251
      8 C          66.4770   93.5914   13.1438 C.3     1  UNL1        0.0048
      9 C          67.2648   92.3288   12.9570 C.3     1  UNL1        0.0048
     10 N          60.8001   89.4794   10.9754 N.pl3   1  UNL1       -0.2821
     11 H          59.9318   89.7280   11.3672 H       1  UNL1        0.1551
     12 C          61.0260   86.1971    7.9053 C.ar    1  UNL1        0.1683
     13 C          59.8693   87.1520    7.8986 C.ar    1  UNL1        0.1299
     14 N          59.7939   88.2461    8.9220 N.ar    1  UNL1       -0.2251
     15 C          60.8754   88.3853    9.9521 C.ar    1  UNL1        0.1527
     16 C          62.0321   87.4304    9.9588 C.ar    1  UNL1        0.1340
     17 N          62.1074   86.3363    8.9354 N.ar    1  UNL1       -0.2290
     18 N          61.1766   84.0089    5.8586 N.1     1  UNL1       -0.1892
     19 C          61.1013   85.1030    6.8820 C.1     1  UNL1        0.1214
     20 N          64.2954   90.6332   14.6431 N.pl3   1  UNL1       -0.3308
     21 H          65.1861   90.9757   14.8849 H       1  UNL1        0.1469
     22 C          63.4383   89.9730   15.6820 C.3     1  UNL1        0.1184
     23 C          63.5217   88.4900   15.8913 C.3     1  UNL1        0.1503
     24 C          62.9466   87.8741   17.1322 C.3     1  UNL1        0.1003
     25 N          63.0300   86.3912   17.3415 N.3     1  UNL1       -0.2933
     26 C          63.6887   85.5240   16.3098 C.3     1  UNL1        0.1011
     27 C          64.2639   86.1399   15.0689 C.3     1  UNL1        0.1592
     28 O          64.1804   87.6230   14.8597 O.3     1  UNL1       -0.3516
     29 H          62.0728   86.0537   17.4421 H       1  UNL1        0.1234
@<TRIPOS>BOND
     1    18    19    3
     2    19    12    1
     3    12    13   ar
     4    13    14   ar
     5    14    15   ar
     6    15    10    1
     7    10     1    1
     8     1     2   ar
     9     2     3   ar
    10     3    20    1
    11    20    22    1
    12    23    22    1
    13    23    24    1
    14    24    25    1
    15    25    26    1
    16    26    27    1
    17    27    28    1
    18     3     4   ar
    19     4     7    1
    20     7     8    1
    21     8     9    1
    22     4     5   ar
    23     5     6   ar
    24    15    16   ar
    25    16    17   ar
    26    17    12   ar
    27     6     1   ar
    28    28    23    1
    29     9     7    1
    30    10    11    1
    31    20    21    1
    32    25    29    1
@<TRIPOS>MOLECULE
*****
 29 32 0 0 0
SMALL
GASTEIGER

@<TRIPOS>ATOM
      1 C          62.0550   87.3749   10.8497 C.ar    1  UNL1        0.1345
      2 C          62.2545   86.6159   12.1281 C.ar    1  UNL1        0.0484
      3 C          62.6631   85.1732   12.0877 C.ar    1  UNL1        0.0449
      4 C          62.8721   84.4895   10.7691 C.ar    1  UNL1        0.0098
      5 C          62.6726   85.2484    9.4908 C.ar    1  UNL1        0.0972
      6 N          62.2640   86.6912    9.5311 N.ar    1  UNL1       -0.2293
      7 C          63.2807   83.0467   10.7288 C.3     1  UNL1        0.0251
      8 C          64.1817   81.9658   10.2094 C.3     1  UNL1        0.0048
      9 C          63.0874   81.6288   11.1784 C.3     1  UNL1        0.0048
     10 N          61.6464   88.8176   10.8900 N.pl3   1  UNL1       -0.2821
     11 H          60.7225   89.0740   10.6665 H       1  UNL1        0.1551
     12 C          64.6435   91.9738   12.0328 C.ar    1  UNL1        0.1683
     13 C          64.1699   90.9839   13.0554 C.ar    1  UNL1        0.1299
     14 N          63.1709   89.9319   12.6745 N.ar    1  UNL1       -0.2251
     15 C          62.6454   89.8697   11.2710 C.ar    1  UNL1        0.1527
     16 C          63.1190   90.8596   10.2483 C.ar    1  UNL1        0.1340
     17 N          64.1180   91.9116   10.6292 N.ar    1  UNL1       -0.2290
     18 N          66.6416   94.0779   12.7946 N.1     1  UNL1       -0.1892
     19 C          65.6425   93.0259   12.4137 C.1     1  UNL1        0.1214
     20 N          62.8627   84.4141   13.3661 N.pl3   1  UNL1       -0.3308
     21 H          62.3256   83.6098   13.5499 H       1  UNL1        0.1469
     22 C          63.8805   84.8807   14.3642 C.3     1  UNL1        0.1184
     23 C          63.4693   85.7854   15.4877 C.3     1  UNL1        0.1503
     24 C          62.7345   85.2267   16.6700 C.3     1  UNL1        0.1003
     25 N          62.3232   86.1314   17.7936 N.3     1  UNL1       -0.2933
     26 C          62.6469   87.5950   17.7348 C.3     1  UNL1        0.1011
     27 C          63.3817   88.1537   16.5525 C.3     1  UNL1        0.1592
     28 O          63.7929   87.2489   15.4290 O.3     1  UNL1       -0.3516
     29 H          62.7602   85.7670   18.6401 H       1  UNL1        0.1234
@<TRIPOS>BOND
     1    18    19    3
     2    19    12    1
     3    12    13   ar
     4    13    14   ar
     5    14    15   ar
     6    15    10    1
     7    10     1    1
     8     1     2   ar
     9     2     3   ar
    10     3    20    1
    11    20    22    1
    12    23    22    1
    13    23    24    1
    14    24    25    1
    15    25    26    1
    16    26    27    1
    17    27    28    1
    18     3     4   ar
    19     4     7    1
    20     7     8    1
    21     8     9    1
    22     4     5   ar
    23     5     6   ar
    24    15    16   ar
    25    16    17   ar
    26    17    12   ar
    27     6     1   ar
    28    28    23    1
    29     9     7    1
    30    10    11    1
    31    20    21    1
    32    25    29    1
@<TRIPOS>MOLECULE
*****
 29 32 0 0 0
SMALL
GASTEIGER

@<TRIPOS>ATOM
      1 C          63.7277   89.0551   13.6445 C.ar    1  UNL1        0.1345
      2 C          63.1227   88.4711   12.4023 C.ar    1  UNL1        0.0484
      3 C          63.0681   86.9829   12.2229 C.ar    1  UNL1        0.0449
      4 C          63.6183   86.0786   13.2856 C.ar    1  UNL1        0.0098
      5 C          64.2232   86.6625   14.5278 C.ar    1  UNL1        0.0972
      6 N          64.2779   88.1508   14.7073 N.ar    1  UNL1       -0.2293
      7 C          63.5637   84.5904   13.1062 C.3     1  UNL1        0.0251
      8 C          64.1731   83.3210   12.5892 C.3     1  UNL1        0.0048
      9 C          62.8595   83.2820   13.3123 C.3     1  UNL1        0.0048
     10 N          63.7823   90.5433   13.8239 N.pl3   1  UNL1       -0.2821
     11 H          63.2406   90.9750   14.5235 H       1  UNL1        0.1551
     12 C          66.4224   93.0348   11.1645 C.ar    1  UNL1        0.1683
     13 C          65.1064   92.5285   10.6529 C.ar    1  UNL1        0.1299
     14 N          64.2264   91.6980   11.5393 N.ar    1  UNL1       -0.2251
     15 C          64.6623   91.3738   12.9375 C.ar    1  UNL1        0.1527
     16 C          65.9783   91.8801   13.4491 C.ar    1  UNL1        0.1340
     17 N          66.8583   92.7106   12.5626 N.ar    1  UNL1       -0.2290
     18 N          68.1824   94.6958    9.3916 N.1     1  UNL1       -0.1892
     19 C          67.3024   93.8653   10.2780 C.1     1  UNL1        0.1214
     20 N          62.4632   86.3989   10.9806 N.pl3   1  UNL1       -0.3308
     21 H          63.0395   85.9716   10.3064 H       1  UNL1        0.1469
     22 C          60.9802   86.4660   10.7656 C.3     1  UNL1        0.1184
     23 C          60.4247   87.2364    9.6047 C.3     1  UNL1        0.1503
     24 C          59.6616   86.5237    8.5278 C.3     1  UNL1        0.1003
     25 N          59.1062   87.2941    7.3668 N.3     1  UNL1       -0.2933
     26 C          59.3138   88.7774    7.2827 C.3     1  UNL1        0.1011
     27 C          60.0769   89.4901    8.3596 C.3     1  UNL1        0.1592
     28 O          60.6324   88.7196    9.5206 O.3     1  UNL1       -0.3516
     29 H          58.0983   87.1373    7.3645 H       1  UNL1        0.1234
@<TRIPOS>BOND
     1    18    19    3
     2    19    12    1
     3    12    13   ar
     4    13    14   ar
     5    14    15   ar
     6    15    10    1
     7    10     1    1
     8     1     2   ar
     9     2     3   ar
    10     3    20    1
    11    20    22    1
    12    23    22    1
    13    23    24    1
    14    24    25    1
    15    25    26    1
    16    26    27    1
    17    27    28    1
    18     3     4   ar
    19     4     7    1
    20     7     8    1
    21     8     9    1
    22     4     5   ar
    23     5     6   ar
    24    15    16   ar
    25    16    17   ar
    26    17    12   ar
    27     6     1   ar
    28    28    23    1
    29     9     7    1
    30    10    11    1
    31    20    21    1
    32    25    29    1
@<TRIPOS>MOLECULE
*****
 29 32 0 0 0
SMALL
GASTEIGER

@<TRIPOS>ATOM
      1 C          62.7199   89.8840   10.9861 C.ar    1  UNL1        0.1345
      2 C          63.2061   89.8274   12.4040 C.ar    1  UNL1        0.0484
      3 C          64.1749   90.8565   12.9063 C.ar    1  UNL1        0.0449
      4 C          64.6576   91.9422   11.9907 C.ar    1  UNL1        0.0098
      5 C          64.1714   91.9988   10.5728 C.ar    1  UNL1        0.0972
      6 N          63.2026   90.9697   10.0705 N.ar    1  UNL1       -0.2293
      7 C          65.6265   92.9713   12.4931 C.3     1  UNL1        0.0251
      8 C          66.3043   94.3008   12.3412 C.3     1  UNL1        0.0048
      9 C          66.6268   93.4242   13.5149 C.3     1  UNL1        0.0048
     10 N          61.7511   88.8550   10.4838 N.pl3   1  UNL1       -0.2821
     11 H          60.8857   89.1358   10.1075 H       1  UNL1        0.1551
     12 C          62.7997   84.4840   10.6969 C.ar    1  UNL1        0.1683
     13 C          62.4707   85.2384   11.9509 C.ar    1  UNL1        0.1299
     14 N          62.1211   86.6954   11.8799 N.ar    1  UNL1       -0.2251
     15 C          62.1006   87.3980   10.5548 C.ar    1  UNL1        0.1527
     16 C          62.4296   86.6436    9.3008 C.ar    1  UNL1        0.1340
     17 N          62.7791   85.1866    9.3718 N.ar    1  UNL1       -0.2290
     18 N          63.4987   81.5701   10.8390 N.1     1  UNL1       -0.1892
     19 C          63.1492   83.0271   10.7679 C.1     1  UNL1        0.1214
     20 N          64.6612   90.7999   14.3242 N.pl3   1  UNL1       -0.3308
     21 H          65.5771   91.0874   14.5424 H       1  UNL1        0.1469
     22 C          63.7518   90.3052   15.4097 C.3     1  UNL1        0.1184
     23 C          63.6852   88.8397   15.7224 C.3     1  UNL1        0.1503
     24 C          62.9757   88.3677   16.9569 C.3     1  UNL1        0.1003
     25 N          62.9092   86.9022   17.2696 N.3     1  UNL1       -0.2933
     26 C          63.5521   85.9086   16.3479 C.3     1  UNL1        0.1011
     27 C          64.2616   86.3806   15.1134 C.3     1  UNL1        0.1592
     28 O          64.3281   87.8462   14.8007 O.3     1  UNL1       -0.3516
     29 H          61.9205   86.6572   17.3233 H       1  UNL1        0.1234
@<TRIPOS>BOND
     1    18    19    3
     2    19    12    1
     3    12    13   ar
     4    13    14   ar
     5    14    15   ar
     6    15    10    1
     7    10     1    1
     8     1     2   ar
     9     2     3   ar
    10     3    20    1
    11    20    22    1
    12    23    22    1
    13    23    24    1
    14    24    25    1
    15    25    26    1
    16    26    27    1
    17    27    28    1
    18     3     4   ar
    19     4     7    1
    20     7     8    1
    21     8     9    1
    22     4     5   ar
    23     5     6   ar
    24    15    16   ar
    25    16    17   ar
    26    17    12   ar
    27     6     1   ar
    28    28    23    1
    29     9     7    1
    30    10    11    1
    31    20    21    1
    32    25    29    1
@<TRIPOS>MOLECULE
*****
 29 32 0 0 0
SMALL
GASTEIGER

@<TRIPOS>ATOM
      1 C          63.3791   88.6821   12.6551 C.ar    1  UNL1        0.1345
      2 C          63.6300   90.0120   12.0083 C.ar    1  UNL1        0.0484
      3 C          64.3934   91.0723   12.7451 C.ar    1  UNL1        0.0449
      4 C          64.9061   90.8027   14.1287 C.ar    1  UNL1        0.0098
      5 C          64.6552   89.4728   14.7756 C.ar    1  UNL1        0.0972
      6 N          63.8917   88.4125   14.0388 N.ar    1  UNL1       -0.2293
      7 C          65.6696   91.8630   14.8655 C.3     1  UNL1        0.0251
      8 C          66.7292   92.9244   14.8846 C.3     1  UNL1        0.0048
      9 C          65.9323   92.6380   16.1226 C.3     1  UNL1        0.0048
     10 N          62.6156   87.6218   11.9183 N.pl3   1  UNL1       -0.2821
     11 H          62.0231   87.8705   11.1724 H       1  UNL1        0.1551
     12 C          63.0331   83.3047   13.1174 C.ar    1  UNL1        0.1683
     13 C          63.3684   84.3907   14.0962 C.ar    1  UNL1        0.1299
     14 N          63.2292   85.8298   13.6965 N.ar    1  UNL1       -0.2251
     15 C          62.7548   86.1828   12.3180 C.ar    1  UNL1        0.1527
     16 C          62.4195   85.0967   11.3392 C.ar    1  UNL1        0.1340
     17 N          62.5586   83.6577   11.7389 N.ar    1  UNL1       -0.2290
     18 N          63.3114   80.4266   13.9168 N.1     1  UNL1       -0.1892
     19 C          63.1722   81.8656   13.5171 C.1     1  UNL1        0.1214
     20 N          64.6443   92.4022   12.0982 N.pl3   1  UNL1       -0.3308
     21 H          64.0062   93.1407   12.2274 H       1  UNL1        0.1469
     22 C          65.8676   92.6070   11.2545 C.3     1  UNL1        0.1184
     23 C          66.2173   93.9798   10.7614 C.3     1  UNL1        0.1503
     24 C          66.9085   94.1488    9.4409 C.3     1  UNL1        0.1003
     25 N          67.2583   95.5216    8.9478 N.3     1  UNL1       -0.2933
     26 C          66.9168   96.7253    9.7751 C.3     1  UNL1        0.1011
     27 C          66.2256   96.5563   11.0956 C.3     1  UNL1        0.1592
     28 O          65.8758   95.1834   11.5887 O.3     1  UNL1       -0.3516
     29 H          66.7905   95.6396    8.0491 H       1  UNL1        0.1234
@<TRIPOS>BOND
     1    18    19    3
     2    19    12    1
     3    12    13   ar
     4    13    14   ar
     5    14    15   ar
     6    15    10    1
     7    10     1    1
     8     1     2   ar
     9     2     3   ar
    10     3    20    1
    11    20    22    1
    12    23    22    1
    13    23    24    1
    14    24    25    1
    15    25    26    1
    16    26    27    1
    17    27    28    1
    18     3     4   ar
    19     4     7    1
    20     7     8    1
    21     8     9    1
    22     4     5   ar
    23     5     6   ar
    24    15    16   ar
    25    16    17   ar
    26    17    12   ar
    27     6     1   ar
    28    28    23    1
    29     9     7    1
    30    10    11    1
    31    20    21    1
    32    25    29    1
@<TRIPOS>MOLECULE
*****
 29 32 0 0 0
SMALL
GASTEIGER

@<TRIPOS>ATOM
      1 C          61.3413   89.5377   12.2469 C.ar    1  UNL1        0.1345
      2 C          61.4698   88.1170   11.7832 C.ar    1  UNL1        0.0484
      3 C          60.9181   87.7108   10.4488 C.ar    1  UNL1        0.0449
      4 C          60.2380   88.7253    9.5780 C.ar    1  UNL1        0.0098
      5 C          60.1095   90.1460   10.0417 C.ar    1  UNL1        0.0972
      6 N          60.6612   90.5523   11.3762 N.ar    1  UNL1       -0.2293
      7 C          59.6864   88.3191    8.2436 C.3     1  UNL1        0.0251
      8 C          59.2862   88.6714    6.8415 C.3     1  UNL1        0.0048
      9 C          59.1311   87.2632    7.3343 C.3     1  UNL1        0.0048
     10 N          61.8929   89.9439   13.5813 N.pl3   1  UNL1       -0.2821
     11 H          61.3329   89.8726   14.3879 H       1  UNL1        0.1551
     12 C          66.1077   91.4884   13.8981 C.ar    1  UNL1        0.1683
     13 C          65.5330   90.6459   14.9980 C.ar    1  UNL1        0.1299
     14 N          64.1281   90.1310   14.8924 N.ar    1  UNL1       -0.2251
     15 C          63.2979   90.4587   13.6869 C.ar    1  UNL1        0.1527
     16 C          63.8725   91.3012   12.5870 C.ar    1  UNL1        0.1340
     17 N          65.2775   91.8161   12.6926 N.ar    1  UNL1       -0.2290
     18 N          68.9175   92.5181   14.1093 N.1     1  UNL1       -0.1892
     19 C          67.5126   92.0032   14.0037 C.1     1  UNL1        0.1214
     20 N          61.0466   86.2900    9.9850 N.pl3   1  UNL1       -0.3308
     21 H          60.2460   85.7218    9.9117 H       1  UNL1        0.1469
     22 C          62.3950   85.7350    9.6330 C.3     1  UNL1        0.1184
     23 C          63.0089   84.6613   10.4817 C.3     1  UNL1        0.1503
     24 C          63.9094   83.6361    9.8588 C.3     1  UNL1        0.1003
     25 N          64.5233   82.5624   10.7074 N.3     1  UNL1       -0.2933
     26 C          64.2367   82.5139   12.1790 C.3     1  UNL1        0.1011
     27 C          63.3362   83.5391   12.8019 C.3     1  UNL1        0.1592
     28 O          62.7222   84.6128   11.9532 O.3     1  UNL1       -0.3516
     29 H          65.5346   82.6500   10.6071 H       1  UNL1        0.1234
@<TRIPOS>BOND
     1    18    19    3
     2    19    12    1
     3    12    13   ar
     4    13    14   ar
     5    14    15   ar
     6    15    10    1
     7    10     1    1
     8     1     2   ar
     9     2     3   ar
    10     3    20    1
    11    20    22    1
    12    23    22    1
    13    23    24    1
    14    24    25    1
    15    25    26    1
    16    26    27    1
    17    27    28    1
    18     3     4   ar
    19     4     7    1
    20     7     8    1
    21     8     9    1
    22     4     5   ar
    23     5     6   ar
    24    15    16   ar
    25    16    17   ar
    26    17    12   ar
    27     6     1   ar
    28    28    23    1
    29     9     7    1
    30    10    11    1
    31    20    21    1
    32    25    29    1
