@<TRIPOS>MOLECULE
*****
 26 28 0 0 0
SMALL
GASTEIGER

@<TRIPOS>ATOM
      1 C          63.8770   91.2491   11.4257 C.ar    1  UNL1       -0.0078
      2 C          63.7974   90.2838   12.5710 C.ar    1  UNL1        0.0001
      3 C          62.8245   89.1430   12.5241 C.ar    1  UNL1        0.0366
      4 C          61.9313   88.9676   11.3319 C.ar    1  UNL1        0.1390
      5 C          62.0109   89.9329   10.1866 C.ar    1  UNL1        0.0366
      6 C          62.9838   91.0737   10.2335 C.ar    1  UNL1        0.0001
      7 C          66.2134   94.2889   10.8208 C.3     1  UNL1        0.1315
      8 C          66.4806   94.0017   12.2686 C.3     1  UNL1        0.0268
      9 C          65.6379   92.8280   12.6714 C.3     1  UNL1        0.0221
     10 C          64.8499   92.3899   11.4725 C.3     1  UNL1        0.0772
     11 N          65.2056   93.2928   10.3288 N.3     1  UNL1       -0.2890
     12 H          64.3716   93.7784    9.9988 H       1  UNL1        0.1239
     13 N          67.9292   95.0534    9.0259 N.am    1  UNL1       -0.3277
     14 C          66.8435   95.3807   10.0077 C.2     1  UNL1        0.2336
     15 O          66.3879   96.7998   10.1764 O.2     1  UNL1       -0.2739
     16 H          68.3428   95.7699    8.4922 H       1  UNL1        0.1450
     17 H          68.2283   94.1220    8.9151 H       1  UNL1        0.1450
     18 O          60.9584   87.8268   11.2851 O.3     1  UNL1       -0.4706
     19 C          60.2961   87.4586    9.9906 C.3     1  UNL1        0.2342
     20 C          60.9985   86.5576    9.0184 C.ar    1  UNL1        0.0486
     21 C          62.4197   86.1478    9.2678 C.ar    1  UNL1        0.0016
     22 C          63.1220   85.2469    8.2957 C.ar    1  UNL1       -0.0001
     23 C          62.4031   84.7557    7.0742 C.ar    1  UNL1        0.0023
     24 C          60.9819   85.1655    6.8249 C.ar    1  UNL1        0.0294
     25 C          60.2796   86.0665    7.7969 C.ar    1  UNL1        0.1396
     26 F          58.8584   86.4763    7.5476 F       1  UNL1       -0.2044
@<TRIPOS>BOND
     1    13    14   am
     2    14    15    2
     3     7    14    1
     4     7     8    1
     5     8     9    1
     6     9    10    1
     7    10     1    1
     8     1     2   ar
     9     2     3   ar
    10     3     4   ar
    11     4    18    1
    12    18    19    1
    13    19    20    1
    14    20    21   ar
    15    21    22   ar
    16    22    23   ar
    17    23    24   ar
    18    24    25   ar
    19    25    26    1
    20     4     5   ar
    21     5     6   ar
    22    10    11    1
    23    11     7    1
    24     6     1   ar
    25    25    20   ar
    26    13    16    1
    27    13    17    1
    28    11    12    1
@<TRIPOS>MOLECULE
*****
 26 28 0 0 0
SMALL
GASTEIGER

@<TRIPOS>ATOM
      1 C          62.8329   89.2342   11.1593 C.ar    1  UNL1       -0.0078
      2 C          63.2916   89.1280   12.5835 C.ar    1  UNL1        0.0001
      3 C          64.0283   90.2685   13.2211 C.ar    1  UNL1        0.0366
      4 C          64.3064   91.5151   12.4345 C.ar    1  UNL1        0.1390
      5 C          63.8477   91.6212   11.0103 C.ar    1  UNL1        0.0366
      6 C          63.1109   90.4808   10.3727 C.ar    1  UNL1        0.0001
      7 C          60.7131   86.7997    9.0040 C.3     1  UNL1        0.1315
      8 C          61.2117   85.8776   10.0771 C.3     1  UNL1        0.0268
      9 C          62.0664   86.6774   11.0150 C.3     1  UNL1        0.0221
     10 C          62.0961   88.0937   10.5217 C.3     1  UNL1        0.0772
     11 N          61.2597   88.1692    9.2788 N.3     1  UNL1       -0.2890
     12 H          61.8335   88.4769    8.4937 H       1  UNL1        0.1239
     13 N          58.6323   87.2649    7.5194 N.am    1  UNL1       -0.3277
     14 C          59.8240   86.4189    7.8575 C.2     1  UNL1        0.2336
     15 O          60.1266   85.1922    7.0490 O.2     1  UNL1       -0.2739
     16 H          58.0488   87.0150    6.7669 H       1  UNL1        0.1450
     17 H          58.4338   88.0700    8.0501 H       1  UNL1        0.1450
     18 O          65.0431   92.6556   13.0721 O.3     1  UNL1       -0.4706
     19 C          66.5157   92.8210   12.8392 C.3     1  UNL1        0.2342
     20 C          67.0331   93.0631   11.4522 C.ar    1  UNL1        0.0486
     21 C          67.9081   92.0411   10.7891 C.ar    1  UNL1        0.0016
     22 C          68.4256   92.2832    9.4022 C.ar    1  UNL1       -0.0001
     23 C          68.0679   93.5474    8.6784 C.ar    1  UNL1        0.0023
     24 C          67.1929   94.5694    9.3415 C.ar    1  UNL1        0.0294
     25 C          66.6755   94.3273   10.7284 C.ar    1  UNL1        0.1396
     26 F          65.8004   95.3493   11.3916 F       1  UNL1       -0.2044
@<TRIPOS>BOND
     1    13    14   am
     2    14    15    2
     3     7    14    1
     4     7     8    1
     5     8     9    1
     6     9    10    1
     7    10     1    1
     8     1     2   ar
     9     2     3   ar
    10     3     4   ar
    11     4    18    1
    12    18    19    1
    13    19    20    1
    14    20    21   ar
    15    21    22   ar
    16    22    23   ar
    17    23    24   ar
    18    24    25   ar
    19    25    26    1
    20     4     5   ar
    21     5     6   ar
    22    10    11    1
    23    11     7    1
    24     6     1   ar
    25    25    20   ar
    26    13    16    1
    27    13    17    1
    28    11    12    1
@<TRIPOS>MOLECULE
*****
 26 28 0 0 0
SMALL
GASTEIGER

@<TRIPOS>ATOM
      1 C          63.9649   91.2292   11.3899 C.ar    1  UNL1       -0.0078
      2 C          63.9376   90.3329   12.5923 C.ar    1  UNL1        0.0001
      3 C          63.0685   89.1104   12.5968 C.ar    1  UNL1        0.0366
      4 C          62.2267   88.7842   11.3989 C.ar    1  UNL1        0.1390
      5 C          62.2540   89.6805   10.1965 C.ar    1  UNL1        0.0366
      6 C          63.1231   90.9030   10.1920 C.ar    1  UNL1        0.0001
      7 C          65.9945   94.4563   10.6600 C.3     1  UNL1        0.1315
      8 C          66.3482   94.2101   12.0968 C.3     1  UNL1        0.0268
      9 C          65.6310   92.9713   12.5451 C.3     1  UNL1        0.0221
     10 C          64.8340   92.4519   11.3854 C.3     1  UNL1        0.0772
     11 N          65.0586   93.3696   10.2204 N.3     1  UNL1       -0.2890
     12 H          64.1713   93.7760    9.9237 H       1  UNL1        0.1239
     13 N          66.5024   95.4590    8.3177 N.am    1  UNL1       -0.3277
     14 C          66.4896   95.5901    9.8119 C.2     1  UNL1        0.2336
     15 O          66.9720   96.8550   10.4579 O.2     1  UNL1       -0.2739
     16 H          66.8274   96.2031    7.7610 H       1  UNL1        0.1450
     17 H          66.1858   94.6288    7.8937 H       1  UNL1        0.1450
     18 O          61.3576   87.5615   11.4034 O.3     1  UNL1       -0.4706
     19 C          61.5700   86.4865   10.3791 C.3     1  UNL1        0.2342
     20 C          62.4373   85.3055   10.7002 C.ar    1  UNL1        0.0486
     21 C          62.5549   84.8241   12.1159 C.ar    1  UNL1        0.0016
     22 C          63.4221   83.6431   12.4369 C.ar    1  UNL1       -0.0001
     23 C          64.1717   82.9434   11.3421 C.ar    1  UNL1        0.0023
     24 C          64.0542   83.4248    9.9264 C.ar    1  UNL1        0.0294
     25 C          63.1869   84.6058    9.6054 C.ar    1  UNL1        0.1396
     26 F          63.0693   85.0873    8.1896 F       1  UNL1       -0.2044
@<TRIPOS>BOND
     1    13    14   am
     2    14    15    2
     3     7    14    1
     4     7     8    1
     5     8     9    1
     6     9    10    1
     7    10     1    1
     8     1     2   ar
     9     2     3   ar
    10     3     4   ar
    11     4    18    1
    12    18    19    1
    13    19    20    1
    14    20    21   ar
    15    21    22   ar
    16    22    23   ar
    17    23    24   ar
    18    24    25   ar
    19    25    26    1
    20     4     5   ar
    21     5     6   ar
    22    10    11    1
    23    11     7    1
    24     6     1   ar
    25    25    20   ar
    26    13    16    1
    27    13    17    1
    28    11    12    1
@<TRIPOS>MOLECULE
*****
 26 28 0 0 0
SMALL
GASTEIGER

@<TRIPOS>ATOM
      1 C          63.5744   91.1097   11.7382 C.ar    1  UNL1       -0.0078
      2 C          63.1931   91.2832   10.2979 C.ar    1  UNL1        0.0001
      3 C          62.0544   90.4938    9.7233 C.ar    1  UNL1        0.0366
      4 C          61.2970   89.5310   10.5890 C.ar    1  UNL1        0.1390
      5 C          61.6783   89.3575   12.0293 C.ar    1  UNL1        0.0366
      6 C          62.8171   90.1469   12.6038 C.ar    1  UNL1        0.0001
      7 C          66.3383   92.8076   13.8698 C.3     1  UNL1        0.1315
      8 C          66.5928   93.4199   12.5243 C.3     1  UNL1        0.0268
      9 C          65.5885   92.8584   11.5621 C.3     1  UNL1        0.0221
     10 C          64.7132   91.8991   12.3128 C.3     1  UNL1        0.0772
     11 N          65.1766   91.8676   13.7391 N.3     1  UNL1       -0.2890
     12 H          65.4668   90.9220   13.9880 H       1  UNL1        0.1239
     13 N          66.4265   93.0094   16.4585 N.am    1  UNL1       -0.3277
     14 C          67.1100   93.0863   15.1256 C.2     1  UNL1        0.2336
     15 O          68.5652   93.4418   15.0483 O.2     1  UNL1       -0.2739
     16 H          66.9329   93.1923   17.2827 H       1  UNL1        0.1450
     17 H          65.4714   92.7760   16.5093 H       1  UNL1        0.1450
     18 O          60.1582   88.7416   10.0143 O.3     1  UNL1       -0.4706
     19 C          60.1654   87.2441   10.0995 C.3     1  UNL1        0.2342
     20 C          60.9607   86.4406    9.1136 C.ar    1  UNL1        0.0486
     21 C          62.3839   86.0768    9.4171 C.ar    1  UNL1        0.0016
     22 C          63.1792   85.2733    8.4313 C.ar    1  UNL1       -0.0001
     23 C          62.5513   84.8336    7.1420 C.ar    1  UNL1        0.0023
     24 C          61.1281   85.1974    6.8384 C.ar    1  UNL1        0.0294
     25 C          60.3328   86.0009    7.8243 C.ar    1  UNL1        0.1396
     26 F          58.9096   86.3648    7.5208 F       1  UNL1       -0.2044
@<TRIPOS>BOND
     1    13    14   am
     2    14    15    2
     3     7    14    1
     4     7     8    1
     5     8     9    1
     6     9    10    1
     7    10     1    1
     8     1     2   ar
     9     2     3   ar
    10     3     4   ar
    11     4    18    1
    12    18    19    1
    13    19    20    1
    14    20    21   ar
    15    21    22   ar
    16    22    23   ar
    17    23    24   ar
    18    24    25   ar
    19    25    26    1
    20     4     5   ar
    21     5     6   ar
    22    10    11    1
    23    11     7    1
    24     6     1   ar
    25    25    20   ar
    26    13    16    1
    27    13    17    1
    28    11    12    1
@<TRIPOS>MOLECULE
*****
 26 28 0 0 0
SMALL
GASTEIGER

@<TRIPOS>ATOM
      1 C          63.9751   88.0552   13.8144 C.ar    1  UNL1       -0.0078
      2 C          63.3606   88.5682   12.5458 C.ar    1  UNL1        0.0001
      3 C          63.5177   90.0108   12.1663 C.ar    1  UNL1        0.0366
      4 C          64.2893   90.9405   13.0554 C.ar    1  UNL1        0.1390
      5 C          64.9037   90.4276   14.3239 C.ar    1  UNL1        0.0366
      6 C          64.7466   88.9849   14.7034 C.ar    1  UNL1        0.0001
      7 C          63.2064   84.2645   14.1384 C.3     1  UNL1        0.1315
      8 C          63.9462   84.5206   15.4179 C.3     1  UNL1        0.0268
      9 C          64.3242   85.9718   15.4523 C.3     1  UNL1        0.0221
     10 C          63.8180   86.6125   14.1940 C.3     1  UNL1        0.0772
     11 N          63.1272   85.5574   13.3820 N.3     1  UNL1       -0.2890
     12 H          63.5893   85.4584   12.4780 H       1  UNL1        0.1239
     13 N          62.3063   81.8947   14.7076 N.am    1  UNL1       -0.3277
     14 C          62.6445   82.9468   13.6934 C.2     1  UNL1        0.2336
     15 O          62.4208   82.6812   12.2341 O.2     1  UNL1       -0.2739
     16 H          61.9375   81.0299   14.4156 H       1  UNL1        0.1450
     17 H          62.4531   82.0690   15.6654 H       1  UNL1        0.1450
     18 O          64.4464   92.3832   12.6758 O.3     1  UNL1       -0.4706
     19 C          65.7969   93.0327   12.7396 C.3     1  UNL1        0.2342
     20 C          66.5405   93.3430   11.4743 C.ar    1  UNL1        0.0486
     21 C          67.3156   92.2650   10.7763 C.ar    1  UNL1        0.0016
     22 C          68.0591   92.5752    9.5111 C.ar    1  UNL1       -0.0001
     23 C          68.0276   93.9635    8.9438 C.ar    1  UNL1        0.0023
     24 C          67.2525   95.0414    9.6417 C.ar    1  UNL1        0.0294
     25 C          66.5089   94.7312   10.9070 C.ar    1  UNL1        0.1396
     26 F          65.7338   95.8092   11.6049 F       1  UNL1       -0.2044
@<TRIPOS>BOND
     1    13    14   am
     2    14    15    2
     3     7    14    1
     4     7     8    1
     5     8     9    1
     6     9    10    1
     7    10     1    1
     8     1     2   ar
     9     2     3   ar
    10     3     4   ar
    11     4    18    1
    12    18    19    1
    13    19    20    1
    14    20    21   ar
    15    21    22   ar
    16    22    23   ar
    17    23    24   ar
    18    24    25   ar
    19    25    26    1
    20     4     5   ar
    21     5     6   ar
    22    10    11    1
    23    11     7    1
    24     6     1   ar
    25    25    20   ar
    26    13    16    1
    27    13    17    1
    28    11    12    1
@<TRIPOS>MOLECULE
*****
 26 28 0 0 0
SMALL
GASTEIGER

@<TRIPOS>ATOM
      1 C          63.8067   87.3882   13.7695 C.ar    1  UNL1       -0.0078
      2 C          63.2389   87.9365   12.4940 C.ar    1  UNL1        0.0001
      3 C          63.3067   89.4086   12.2147 C.ar    1  UNL1        0.0366
      4 C          63.9423   90.3325   13.2108 C.ar    1  UNL1        0.1390
      5 C          64.5102   89.7843   14.4863 C.ar    1  UNL1        0.0366
      6 C          64.4423   88.3121   14.7657 C.ar    1  UNL1        0.0001
      7 C          63.1228   83.5711   13.9363 C.3     1  UNL1        0.1315
      8 C          64.1463   83.7299   15.0214 C.3     1  UNL1        0.0268
      9 C          64.5270   85.1791   15.0910 C.3     1  UNL1        0.0221
     10 C          63.7389   85.9160   14.0489 C.3     1  UNL1        0.0772
     11 N          62.8711   84.9222   13.3353 N.3     1  UNL1       -0.2890
     12 H          63.1049   84.9084   12.3425 H       1  UNL1        0.1239
     13 N          62.0437   81.2931   14.5656 N.am    1  UNL1       -0.3277
     14 C          62.4664   82.2867   13.5245 C.2     1  UNL1        0.2336
     15 O          62.2328   81.9960   12.0716 O.2     1  UNL1       -0.2739
     16 H          61.6129   80.4501   14.2954 H       1  UNL1        0.1450
     17 H          62.1970   81.4839   15.5192 H       1  UNL1        0.1450
     18 O          64.0102   91.8048   12.9314 O.3     1  UNL1       -0.4706
     19 C          65.3361   92.4609   12.6839 C.3     1  UNL1        0.2342
     20 C          66.3869   92.4560   13.7544 C.ar    1  UNL1        0.0486
     21 C          66.0311   92.8534   15.1563 C.ar    1  UNL1        0.0016
     22 C          67.0819   92.8485   16.2267 C.ar    1  UNL1       -0.0001
     23 C          68.4884   92.4462   15.8952 C.ar    1  UNL1        0.0023
     24 C          68.8441   92.0488   14.4933 C.ar    1  UNL1        0.0294
     25 C          67.7934   92.0537   13.4229 C.ar    1  UNL1        0.1396
     26 F          68.1491   91.6563   12.0208 F       1  UNL1       -0.2044
@<TRIPOS>BOND
     1    13    14   am
     2    14    15    2
     3     7    14    1
     4     7     8    1
     5     8     9    1
     6     9    10    1
     7    10     1    1
     8     1     2   ar
     9     2     3   ar
    10     3     4   ar
    11     4    18    1
    12    18    19    1
    13    19    20    1
    14    20    21   ar
    15    21    22   ar
    16    22    23   ar
    17    23    24   ar
    18    24    25   ar
    19    25    26    1
    20     4     5   ar
    21     5     6   ar
    22    10    11    1
    23    11     7    1
    24     6     1   ar
    25    25    20   ar
    26    13    16    1
    27    13    17    1
    28    11    12    1
@<TRIPOS>MOLECULE
*****
 26 28 0 0 0
SMALL
GASTEIGER

@<TRIPOS>ATOM
      1 C          62.6260   85.4589   11.1558 C.ar    1  UNL1       -0.0078
      2 C          62.1708   85.8429    9.7791 C.ar    1  UNL1        0.0001
      3 C          62.0238   87.2903    9.4143 C.ar    1  UNL1        0.0366
      4 C          62.3320   88.3539   10.4262 C.ar    1  UNL1        0.1390
      5 C          62.7871   87.9699   11.8029 C.ar    1  UNL1        0.0366
      6 C          62.9341   86.5225   12.1677 C.ar    1  UNL1        0.0001
      7 C          62.6420   81.9107   12.7291 C.3     1  UNL1        0.1315
      8 C          63.3567   81.6571   11.4349 C.3     1  UNL1        0.0268
      9 C          63.4377   82.9554   10.6881 C.3     1  UNL1        0.0221
     10 C          62.7730   84.0114   11.5206 C.3     1  UNL1        0.0772
     11 N          62.2813   83.3657   12.7821 N.3     1  UNL1       -0.2890
     12 H          61.2689   83.4690   12.8519 H       1  UNL1        0.1239
     13 N          60.9221   80.6356   14.2009 N.am    1  UNL1       -0.3277
     14 C          62.3409   80.8887   13.7850 C.2     1  UNL1        0.2336
     15 O          63.4585   80.1198   14.4250 O.2     1  UNL1       -0.2739
     16 H          60.7244   79.9648   14.8939 H       1  UNL1        0.1450
     17 H          60.1885   81.1402   13.7808 H       1  UNL1        0.1450
     18 O          62.1849   89.8014   10.0613 O.3     1  UNL1       -0.4706
     19 C          62.2693   90.8554   11.1252 C.3     1  UNL1        0.2342
     20 C          63.6060   91.3897   11.5472 C.ar    1  UNL1        0.0486
     21 C          64.4917   92.0702   10.5461 C.ar    1  UNL1        0.0016
     22 C          65.8282   92.6045   10.9681 C.ar    1  UNL1       -0.0001
     23 C          66.2790   92.4583   12.3913 C.ar    1  UNL1        0.0023
     24 C          65.3933   91.7778   13.3924 C.ar    1  UNL1        0.0294
     25 C          64.0567   91.2435   12.9704 C.ar    1  UNL1        0.1396
     26 F          63.1709   90.5630   13.9716 F       1  UNL1       -0.2044
@<TRIPOS>BOND
     1    13    14   am
     2    14    15    2
     3     7    14    1
     4     7     8    1
     5     8     9    1
     6     9    10    1
     7    10     1    1
     8     1     2   ar
     9     2     3   ar
    10     3     4   ar
    11     4    18    1
    12    18    19    1
    13    19    20    1
    14    20    21   ar
    15    21    22   ar
    16    22    23   ar
    17    23    24   ar
    18    24    25   ar
    19    25    26    1
    20     4     5   ar
    21     5     6   ar
    22    10    11    1
    23    11     7    1
    24     6     1   ar
    25    25    20   ar
    26    13    16    1
    27    13    17    1
    28    11    12    1
@<TRIPOS>MOLECULE
*****
 26 28 0 0 0
SMALL
GASTEIGER

@<TRIPOS>ATOM
      1 C          63.1823   86.4001   12.4950 C.ar    1  UNL1       -0.0078
      2 C          62.5856   87.3792   11.5280 C.ar    1  UNL1        0.0001
      3 C          62.7297   88.8528   11.7680 C.ar    1  UNL1        0.0366
      4 C          63.4704   89.3473   12.9749 C.ar    1  UNL1        0.1390
      5 C          64.0671   88.3682   13.9419 C.ar    1  UNL1        0.0366
      6 C          63.9231   86.8945   13.7020 C.ar    1  UNL1        0.0001
      7 C          62.6835   82.5527   12.6162 C.3     1  UNL1        0.1315
      8 C          62.9499   82.7645   11.1553 C.3     1  UNL1        0.0268
      9 C          63.1692   84.2315   10.9321 C.3     1  UNL1        0.0221
     10 C          63.0383   84.9263   12.2551 C.3     1  UNL1        0.0772
     11 N          62.7381   83.8888   13.2959 N.3     1  UNL1       -0.2890
     12 H          61.8404   84.0900   13.7364 H       1  UNL1        0.1239
     13 N          62.0253   81.1928   14.7299 N.am    1  UNL1       -0.3277
     14 C          62.4103   81.2360   13.2808 C.2     1  UNL1        0.2336
     15 O          62.5222   79.9624   12.4963 O.2     1  UNL1       -0.2739
     16 H          61.8460   80.3286   15.1660 H       1  UNL1        0.1450
     17 H          61.9518   82.0287   15.2448 H       1  UNL1        0.1450
     18 O          63.6144   90.8210   13.2148 O.3     1  UNL1       -0.4706
     19 C          64.0857   91.3213   14.5481 C.3     1  UNL1        0.2342
     20 C          65.5110   91.7539   14.7258 C.ar    1  UNL1        0.0486
     21 C          66.5004   91.5503   13.6170 C.ar    1  UNL1        0.0016
     22 C          67.9256   91.9829   13.7947 C.ar    1  UNL1       -0.0001
     23 C          68.3613   92.6192   15.0813 C.ar    1  UNL1        0.0023
     24 C          67.3719   92.8228   16.1901 C.ar    1  UNL1        0.0294
     25 C          65.9467   92.3902   16.0124 C.ar    1  UNL1        0.1396
     26 F          64.9572   92.5938   17.1212 F       1  UNL1       -0.2044
@<TRIPOS>BOND
     1    13    14   am
     2    14    15    2
     3     7    14    1
     4     7     8    1
     5     8     9    1
     6     9    10    1
     7    10     1    1
     8     1     2   ar
     9     2     3   ar
    10     3     4   ar
    11     4    18    1
    12    18    19    1
    13    19    20    1
    14    20    21   ar
    15    21    22   ar
    16    22    23   ar
    17    23    24   ar
    18    24    25   ar
    19    25    26    1
    20     4     5   ar
    21     5     6   ar
    22    10    11    1
    23    11     7    1
    24     6     1   ar
    25    25    20   ar
    26    13    16    1
    27    13    17    1
    28    11    12    1
@<TRIPOS>MOLECULE
*****
 26 28 0 0 0
SMALL
GASTEIGER

@<TRIPOS>ATOM
      1 C          59.6826   89.2392    7.2329 C.ar    1  UNL1       -0.0078
      2 C          60.3731   89.6769    8.4905 C.ar    1  UNL1        0.0001
      3 C          60.6517   88.6822    9.5781 C.ar    1  UNL1        0.0366
      4 C          60.2398   87.2499    9.4081 C.ar    1  UNL1        0.1390
      5 C          59.5494   86.8123    8.1505 C.ar    1  UNL1        0.0366
      6 C          59.2708   87.8069    7.0629 C.ar    1  UNL1        0.0001
      7 C          59.7104   91.8201    4.3339 C.3     1  UNL1        0.1315
      8 C          58.2400   91.7088    4.6088 C.3     1  UNL1        0.0268
      9 C          58.0507   90.7285    5.7282 C.3     1  UNL1        0.0221
     10 C          59.4040   90.2339    6.1451 C.3     1  UNL1        0.0772
     11 N          60.4298   90.9086    5.2834 N.3     1  UNL1       -0.2890
     12 H          60.9562   90.2091    4.7599 H       1  UNL1        0.1239
     13 N          61.7478   92.4046    2.8315 N.am    1  UNL1       -0.3277
     14 C          60.3493   92.6902    3.2924 C.2     1  UNL1        0.2336
     15 O          59.5896   93.8460    2.7117 O.2     1  UNL1       -0.2739
     16 H          62.1671   92.9757    2.1479 H       1  UNL1        0.1450
     17 H          62.2465   91.6461    3.2125 H       1  UNL1        0.1450
     18 O          60.5184   86.2553   10.4959 O.3     1  UNL1       -0.4706
     19 C          61.8344   86.2796   11.2153 C.3     1  UNL1        0.2342
     20 C          62.6838   85.0443   11.2670 C.ar    1  UNL1        0.0486
     21 C          62.9618   84.3798   12.5827 C.ar    1  UNL1        0.0016
     22 C          63.8112   83.1446   12.6344 C.ar    1  UNL1       -0.0001
     23 C          64.3826   82.5738   11.3704 C.ar    1  UNL1        0.0023
     24 C          64.1046   83.2383   10.0547 C.ar    1  UNL1        0.0294
     25 C          63.2552   84.4735   10.0030 C.ar    1  UNL1        0.1396
     26 F          62.9772   85.1380    8.6872 F       1  UNL1       -0.2044
@<TRIPOS>BOND
     1    13    14   am
     2    14    15    2
     3     7    14    1
     4     7     8    1
     5     8     9    1
     6     9    10    1
     7    10     1    1
     8     1     2   ar
     9     2     3   ar
    10     3     4   ar
    11     4    18    1
    12    18    19    1
    13    19    20    1
    14    20    21   ar
    15    21    22   ar
    16    22    23   ar
    17    23    24   ar
    18    24    25   ar
    19    25    26    1
    20     4     5   ar
    21     5     6   ar
    22    10    11    1
    23    11     7    1
    24     6     1   ar
    25    25    20   ar
    26    13    16    1
    27    13    17    1
    28    11    12    1
