@<TRIPOS>MOLECULE
*****
 35 38 0 0 0
SMALL
GASTEIGER

@<TRIPOS>ATOM
      1 C          64.5997   85.4597   14.7342 C.2     1  UNL1        0.2015
      2 O          66.0746   85.2330   14.8856 O.2     1  UNL1       -0.2864
      3 C          63.8895   86.4129   15.6493 C.ar    1  UNL1        0.0611
      4 C          62.9718   86.0364   16.7744 C.ar    1  UNL1        0.1037
      5 N          62.4875   87.3007   17.4203 N.ar    1  UNL1       -0.2269
      6 C          63.1060   88.4585   16.6943 C.ar    1  UNL1        0.1407
      7 N          62.9921   89.9414   16.8885 N.ar    1  UNL1       -0.3374
      8 C          63.7447   90.8757   15.9882 C.ar    1  UNL1        0.0734
      9 C          64.6112   90.3270   14.8936 C.ar    1  UNL1        0.0173
     10 C          64.7251   88.8440   14.6994 C.ar    1  UNL1        0.0046
     11 C          63.9725   87.9097   15.5997 C.ar    1  UNL1        0.0386
     12 H          62.4234   90.3016   17.6070 H       1  UNL1        0.1674
     13 C          65.3638   91.2613   13.9932 C.ar    1  UNL1        0.0068
     14 C          66.7469   91.7082   14.3636 C.ar    1  UNL1        0.0209
     15 C          67.4995   92.6426   13.4632 C.ar    1  UNL1        0.1013
     16 N          66.8690   93.1300   12.1925 N.ar    1  UNL1       -0.2165
     17 C          65.4858   92.6831   11.8221 C.ar    1  UNL1        0.2223
     18 F          64.8552   93.1705   10.5514 F       1  UNL1       -0.1832
     19 C          64.7332   91.7488   12.7225 C.ar    1  UNL1        0.0497
     20 C          62.5108   84.7630   11.4325 C.ar    1  UNL1        0.0920
     21 C          62.3050   83.2807   11.5348 C.ar    1  UNL1        0.0204
     22 C          62.8641   82.5248   12.7035 C.ar    1  UNL1        0.0312
     23 C          63.6289   83.2510   13.7700 C.ar    1  UNL1        0.1454
     24 F          64.1880   82.4951   14.9388 F       1  UNL1       -0.2040
     25 C          63.8347   84.7333   13.6677 C.ar    1  UNL1        0.0951
     26 C          63.2757   85.4893   12.4990 C.ar    1  UNL1        0.1598
     27 F          63.4815   86.9716   12.3967 F       1  UNL1       -0.2026
     28 N          61.9517   85.5189   10.2637 N.pl3   1  UNL1       -0.2166
     29 H          61.7715   85.0518    9.4160 H       1  UNL1        0.1734
     30 S          61.6672   86.9866   10.3865 S.O2    1  UNL1        0.0540
     31 O          62.6502   87.2689    9.2893 O.2     1  UNL1       -0.1545
     32 O          60.6842   86.7042   11.4837 O.2     1  UNL1       -0.1545
     33 C          61.3826   88.4541   10.5094 C.3     1  UNL1        0.1724
     34 C          62.5482   90.7387   10.0943 C.3     1  UNL1        0.0019
     35 C          62.4999   89.4134   10.7952 C.3     1  UNL1        0.0273
@<TRIPOS>BOND
     1    34    35    1
     2    35    33    1
     3    33    30    1
     4    30    31    2
     5    30    32    2
     6    30    28    1
     7    28    20    1
     8    20    21   ar
     9    21    22   ar
    10    22    23   ar
    11    23    24    1
    12    23    25   ar
    13    25     1    1
    14     1     2    2
    15     1     3    1
    16     3     4   ar
    17     4     5   ar
    18     5     6   ar
    19     6     7   ar
    20     7     8   ar
    21     8     9   ar
    22     9    13    1
    23    13    14   ar
    24    14    15   ar
    25    15    16   ar
    26    16    17   ar
    27    17    18    1
    28    17    19   ar
    29     9    10   ar
    30    10    11   ar
    31    25    26   ar
    32    26    27    1
    33    26    20   ar
    34    11     3   ar
    35    11     6    1
    36    19    13   ar
    37    28    29    1
    38     7    12    1
@<TRIPOS>MOLECULE
*****
 35 38 0 0 0
SMALL
GASTEIGER

@<TRIPOS>ATOM
      1 C          64.5087   85.5464   14.5427 C.2     1  UNL1        0.2015
      2 O          65.9408   85.1416   14.7298 O.2     1  UNL1       -0.2864
      3 C          63.8482   86.4507   15.5408 C.ar    1  UNL1        0.0611
      4 C          62.9969   86.0156   16.6966 C.ar    1  UNL1        0.1037
      5 N          62.5457   87.2448   17.4284 N.ar    1  UNL1       -0.2269
      6 C          63.1182   88.4395   16.7248 C.ar    1  UNL1        0.1407
      7 N          63.0105   89.9109   16.9958 N.ar    1  UNL1       -0.3374
      8 C          63.7078   90.8914   16.1001 C.ar    1  UNL1        0.0734
      9 C          64.5128   90.4006   14.9334 C.ar    1  UNL1        0.0173
     10 C          64.6205   88.9292   14.6625 C.ar    1  UNL1        0.0046
     11 C          63.9232   87.9487   15.5582 C.ar    1  UNL1        0.0386
     12 H          62.4822   90.2330   17.7615 H       1  UNL1        0.1674
     13 C          65.2101   91.3812   14.0377 C.ar    1  UNL1        0.0068
     14 C          66.4207   92.1173   14.5301 C.ar    1  UNL1        0.0209
     15 C          67.1181   93.0979   13.6343 C.ar    1  UNL1        0.1013
     16 N          66.6047   93.3423   12.2463 N.ar    1  UNL1       -0.2165
     17 C          65.3940   92.6061   11.7540 C.ar    1  UNL1        0.2223
     18 F          64.8806   92.8505   10.3659 F       1  UNL1       -0.1832
     19 C          64.6967   91.6256   12.6497 C.ar    1  UNL1        0.0497
     20 C          62.4366   85.5183   11.1580 C.ar    1  UNL1        0.0920
     21 C          62.1934   84.0481   10.9867 C.ar    1  UNL1        0.0204
     22 C          62.7219   83.0773   12.0007 C.ar    1  UNL1        0.0312
     23 C          63.4937   83.5767   13.1860 C.ar    1  UNL1        0.1454
     24 F          64.0222   82.6060   14.2001 F       1  UNL1       -0.2040
     25 C          63.7369   85.0469   13.3573 C.ar    1  UNL1        0.0951
     26 C          63.2083   86.0177   12.3433 C.ar    1  UNL1        0.1598
     27 F          63.4516   87.4879   12.5146 F       1  UNL1       -0.2026
     28 N          61.9080   86.4891   10.1440 N.pl3   1  UNL1       -0.2166
     29 H          61.7849   87.4354   10.3859 H       1  UNL1        0.1734
     30 S          61.5671   86.0180    8.7613 S.O2    1  UNL1        0.0540
     31 O          60.1214   86.3298    9.0115 O.2     1  UNL1       -0.1545
     32 O          63.0128   85.7061    8.5111 O.2     1  UNL1       -0.1545
     33 C          61.2263   85.5469    7.3786 C.3     1  UNL1        0.1724
     34 C          61.8148   84.0861    5.3122 C.3     1  UNL1        0.0019
     35 C          62.2293   84.7635    6.5846 C.3     1  UNL1        0.0273
@<TRIPOS>BOND
     1    34    35    1
     2    35    33    1
     3    33    30    1
     4    30    31    2
     5    30    32    2
     6    30    28    1
     7    28    20    1
     8    20    21   ar
     9    21    22   ar
    10    22    23   ar
    11    23    24    1
    12    23    25   ar
    13    25     1    1
    14     1     2    2
    15     1     3    1
    16     3     4   ar
    17     4     5   ar
    18     5     6   ar
    19     6     7   ar
    20     7     8   ar
    21     8     9   ar
    22     9    13    1
    23    13    14   ar
    24    14    15   ar
    25    15    16   ar
    26    16    17   ar
    27    17    18    1
    28    17    19   ar
    29     9    10   ar
    30    10    11   ar
    31    25    26   ar
    32    26    27    1
    33    26    20   ar
    34    11     3   ar
    35    11     6    1
    36    19    13   ar
    37    28    29    1
    38     7    12    1
@<TRIPOS>MOLECULE
*****
 35 38 0 0 0
SMALL
GASTEIGER

@<TRIPOS>ATOM
      1 C          62.8608   90.2663   12.9600 C.2     1  UNL1        0.2015
      2 O          62.3711   89.9120   14.3328 O.2     1  UNL1       -0.2864
      3 C          62.0639   89.8678   11.7533 C.ar    1  UNL1        0.0611
      4 C          61.2145   90.7788   10.9174 C.ar    1  UNL1        0.1037
      5 N          60.6022   89.9624    9.8182 N.ar    1  UNL1       -0.2269
      6 C          61.0730   88.5468    9.9747 C.ar    1  UNL1        0.1407
      7 N          60.7959   87.3035    9.1827 N.ar    1  UNL1       -0.3374
      8 C          61.4222   86.0018    9.5866 C.ar    1  UNL1        0.0734
      9 C          62.3256   85.9434   10.7826 C.ar    1  UNL1        0.0173
     10 C          62.6027   87.1867   11.5747 C.ar    1  UNL1        0.0046
     11 C          61.9765   88.4884   11.1707 C.ar    1  UNL1        0.0386
     12 H          60.2030   87.3418    8.3977 H       1  UNL1        0.1674
     13 C          62.9519   84.6415   11.1866 C.ar    1  UNL1        0.0068
     14 C          63.5520   83.7432   10.1461 C.ar    1  UNL1        0.0209
     15 C          64.1783   82.4414   10.5500 C.ar    1  UNL1        0.1013
     16 N          64.2045   82.0380   11.9946 N.ar    1  UNL1       -0.2165
     17 C          63.6043   82.9364   13.0351 C.ar    1  UNL1        0.2223
     18 F          63.6304   82.5331   14.4796 F       1  UNL1       -0.1832
     19 C          62.9780   84.2382   12.6311 C.ar    1  UNL1        0.0497
     20 C          65.7133   92.5077   11.3507 C.ar    1  UNL1        0.0920
     21 C          66.7210   92.5249   12.4617 C.ar    1  UNL1        0.0204
     22 C          66.4419   91.7893   13.7388 C.ar    1  UNL1        0.0312
     23 C          65.1553   91.0364   13.9049 C.ar    1  UNL1        0.1454
     24 F          64.8762   90.3008   15.1820 F       1  UNL1       -0.2040
     25 C          64.1476   91.0192   12.7939 C.ar    1  UNL1        0.0951
     26 C          64.4267   91.7548   11.5168 C.ar    1  UNL1        0.1598
     27 F          63.4189   91.7376   10.4058 F       1  UNL1       -0.2026
     28 N          65.9924   93.2433   10.0736 N.pl3   1  UNL1       -0.2166
     29 H          65.8167   92.8098    9.2073 H       1  UNL1        0.1734
     30 S          66.5392   94.6394   10.1164 S.O2    1  UNL1        0.0540
     31 O          67.8817   94.1268    9.6864 O.2     1  UNL1       -0.1545
     32 O          65.1967   95.1520   10.5463 O.2     1  UNL1       -0.1545
     33 C          67.0859   96.0355   10.1592 C.3     1  UNL1        0.1724
     34 C          66.4149   96.7508    7.7532 C.3     1  UNL1        0.0019
     35 C          67.4022   96.7566    8.8824 C.3     1  UNL1        0.0273
@<TRIPOS>BOND
     1    34    35    1
     2    35    33    1
     3    33    30    1
     4    30    31    2
     5    30    32    2
     6    30    28    1
     7    28    20    1
     8    20    21   ar
     9    21    22   ar
    10    22    23   ar
    11    23    24    1
    12    23    25   ar
    13    25     1    1
    14     1     2    2
    15     1     3    1
    16     3     4   ar
    17     4     5   ar
    18     5     6   ar
    19     6     7   ar
    20     7     8   ar
    21     8     9   ar
    22     9    13    1
    23    13    14   ar
    24    14    15   ar
    25    15    16   ar
    26    16    17   ar
    27    17    18    1
    28    17    19   ar
    29     9    10   ar
    30    10    11   ar
    31    25    26   ar
    32    26    27    1
    33    26    20   ar
    34    11     3   ar
    35    11     6    1
    36    19    13   ar
    37    28    29    1
    38     7    12    1
@<TRIPOS>MOLECULE
*****
 35 38 0 0 0
SMALL
GASTEIGER

@<TRIPOS>ATOM
      1 C          62.6560   85.4679    9.2108 C.2     1  UNL1        0.2015
      2 O          63.4683   85.2614    7.9669 O.2     1  UNL1       -0.2864
      3 C          61.5208   86.4483    9.2113 C.ar    1  UNL1        0.0611
      4 C          60.1351   86.1929    8.6968 C.ar    1  UNL1        0.1037
      5 N          59.3299   87.4430    8.8939 N.ar    1  UNL1       -0.2269
      6 C          60.2178   88.4709    9.5301 C.ar    1  UNL1        0.1407
      7 N          59.9684   89.8873    9.9562 N.ar    1  UNL1       -0.3374
      8 C          61.0730   90.6889   10.5785 C.ar    1  UNL1        0.0734
      9 C          62.4271   90.0741   10.7746 C.ar    1  UNL1        0.0173
     10 C          62.6765   88.6577   10.3486 C.ar    1  UNL1        0.0046
     11 C          61.5719   87.8561    9.7263 C.ar    1  UNL1        0.0386
     12 H          59.0796   90.2908    9.8275 H       1  UNL1        0.1674
     13 C          63.5317   90.8758   11.3969 C.ar    1  UNL1        0.0068
     14 C          64.2735   91.8914   10.5796 C.ar    1  UNL1        0.0209
     15 C          65.3782   92.6931   11.2019 C.ar    1  UNL1        0.1013
     16 N          65.7409   92.4791   12.6415 N.ar    1  UNL1       -0.2165
     17 C          64.9990   91.4633   13.4589 C.ar    1  UNL1        0.2223
     18 F          65.3618   91.2493   14.8985 F       1  UNL1       -0.1832
     19 C          63.8945   90.6617   12.8366 C.ar    1  UNL1        0.0497
     20 C          62.6588   84.2916   13.0012 C.ar    1  UNL1        0.0920
     21 C          63.6250   83.1458   12.9417 C.ar    1  UNL1        0.0204
     22 C          64.2683   82.7740   11.6386 C.ar    1  UNL1        0.0312
     23 C          63.9453   83.5480   10.3950 C.ar    1  UNL1        0.1454
     24 F          64.5886   83.1762    9.0920 F       1  UNL1       -0.2040
     25 C          62.9791   84.6938   10.4545 C.ar    1  UNL1        0.0951
     26 C          62.3358   85.0655   11.7576 C.ar    1  UNL1        0.1598
     27 F          61.3695   86.2114   11.8170 F       1  UNL1       -0.2026
     28 N          62.0155   84.6633   14.3043 N.pl3   1  UNL1       -0.2166
     29 H          61.0586   84.4835   14.4499 H       1  UNL1        0.1734
     30 S          62.8302   85.3092   15.3855 S.O2    1  UNL1        0.0540
     31 O          62.1679   84.4336   16.4076 O.2     1  UNL1       -0.1545
     32 O          63.4926   86.1848   14.3635 O.2     1  UNL1       -0.1545
     33 C          63.6450   85.9550   16.4667 C.3     1  UNL1        0.1724
     34 C          63.0404   88.3840   17.1630 C.3     1  UNL1        0.0019
     35 C          62.9965   86.9081   17.4266 C.3     1  UNL1        0.0273
@<TRIPOS>BOND
     1    34    35    1
     2    35    33    1
     3    33    30    1
     4    30    31    2
     5    30    32    2
     6    30    28    1
     7    28    20    1
     8    20    21   ar
     9    21    22   ar
    10    22    23   ar
    11    23    24    1
    12    23    25   ar
    13    25     1    1
    14     1     2    2
    15     1     3    1
    16     3     4   ar
    17     4     5   ar
    18     5     6   ar
    19     6     7   ar
    20     7     8   ar
    21     8     9   ar
    22     9    13    1
    23    13    14   ar
    24    14    15   ar
    25    15    16   ar
    26    16    17   ar
    27    17    18    1
    28    17    19   ar
    29     9    10   ar
    30    10    11   ar
    31    25    26   ar
    32    26    27    1
    33    26    20   ar
    34    11     3   ar
    35    11     6    1
    36    19    13   ar
    37    28    29    1
    38     7    12    1
@<TRIPOS>MOLECULE
*****
 35 38 0 0 0
SMALL
GASTEIGER

@<TRIPOS>ATOM
      1 C          61.9254   89.7815   11.7047 C.2     1  UNL1        0.2015
      2 O          61.2230   90.8372   10.9035 O.2     1  UNL1       -0.2864
      3 C          62.7309   90.1666   12.9101 C.ar    1  UNL1        0.0611
      4 C          62.4436   89.7669   14.3270 C.ar    1  UNL1        0.1037
      5 N          63.5003   90.3722   15.2027 N.ar    1  UNL1       -0.2269
      6 C          64.4407   91.1460   14.3270 C.ar    1  UNL1        0.1407
      7 N          65.6686   91.9499   14.6368 N.ar    1  UNL1       -0.3374
      8 C          66.4210   92.6267   13.5296 C.ar    1  UNL1        0.0734
      9 C          65.9454   92.4996   12.1127 C.ar    1  UNL1        0.0173
     10 C          64.7176   91.6957   11.8029 C.ar    1  UNL1        0.0046
     11 C          63.9652   91.0189   12.9100 C.ar    1  UNL1        0.0386
     12 H          65.9807   92.0333   15.5668 H       1  UNL1        0.1674
     13 C          66.6979   93.1765   11.0055 C.ar    1  UNL1        0.0068
     14 C          66.5450   94.6527   10.7880 C.ar    1  UNL1        0.0209
     15 C          67.2974   95.3296    9.6808 C.ar    1  UNL1        0.1013
     16 N          68.2027   94.5302    8.7912 N.ar    1  UNL1       -0.2165
     17 C          68.3555   93.0539    9.0087 C.ar    1  UNL1        0.2223
     18 F          69.2607   92.2545    8.1191 F       1  UNL1       -0.1832
     19 C          67.6031   92.3771   10.1159 C.ar    1  UNL1        0.0497
     20 C          62.6270   85.8798   11.5174 C.ar    1  UNL1        0.0920
     21 C          61.6160   85.4589   10.4923 C.ar    1  UNL1        0.0204
     22 C          60.7082   86.4789    9.8714 C.ar    1  UNL1        0.0312
     23 C          60.8113   87.9197   10.2755 C.ar    1  UNL1        0.1454
     24 F          59.9034   88.9396    9.6545 F       1  UNL1       -0.2040
     25 C          61.8222   88.3406   11.3005 C.ar    1  UNL1        0.0951
     26 C          62.7301   87.3207   11.9215 C.ar    1  UNL1        0.1598
     27 F          63.7411   87.7417   12.9465 F       1  UNL1       -0.2026
     28 N          63.5349   84.8599   12.1383 N.pl3   1  UNL1       -0.2166
     29 H          64.4967   84.8642   11.9282 H       1  UNL1        0.1734
     30 S          62.9773   83.8335   13.0793 S.O2    1  UNL1        0.0540
     31 O          62.8452   84.8815   14.1442 O.2     1  UNL1       -0.1545
     32 O          63.1093   82.7854   12.0144 O.2     1  UNL1       -0.1545
     33 C          62.4197   82.8070   14.0202 C.3     1  UNL1        0.1724
     34 C          60.7723   80.8001   14.1131 C.3     1  UNL1        0.0019
     35 C          61.9575   81.4803   13.4946 C.3     1  UNL1        0.0273
@<TRIPOS>BOND
     1    34    35    1
     2    35    33    1
     3    33    30    1
     4    30    31    2
     5    30    32    2
     6    30    28    1
     7    28    20    1
     8    20    21   ar
     9    21    22   ar
    10    22    23   ar
    11    23    24    1
    12    23    25   ar
    13    25     1    1
    14     1     2    2
    15     1     3    1
    16     3     4   ar
    17     4     5   ar
    18     5     6   ar
    19     6     7   ar
    20     7     8   ar
    21     8     9   ar
    22     9    13    1
    23    13    14   ar
    24    14    15   ar
    25    15    16   ar
    26    16    17   ar
    27    17    18    1
    28    17    19   ar
    29     9    10   ar
    30    10    11   ar
    31    25    26   ar
    32    26    27    1
    33    26    20   ar
    34    11     3   ar
    35    11     6    1
    36    19    13   ar
    37    28    29    1
    38     7    12    1
@<TRIPOS>MOLECULE
*****
 35 38 0 0 0
SMALL
GASTEIGER

@<TRIPOS>ATOM
      1 C          61.2520   89.9987   11.3475 C.2     1  UNL1        0.2015
      2 O          60.0150   90.4829   12.0441 O.2     1  UNL1       -0.2864
      3 C          61.1567   88.9104   10.3195 C.ar    1  UNL1        0.0611
      4 C          60.6165   89.0570    8.9279 C.ar    1  UNL1        0.1037
      5 N          60.7108   87.7217    8.2511 N.ar    1  UNL1       -0.2269
      6 C          61.3092   86.7499    9.2245 C.ar    1  UNL1        0.1407
      7 N          61.6389   85.2909    9.1119 N.ar    1  UNL1       -0.3374
      8 C          62.2441   84.5666   10.2777 C.ar    1  UNL1        0.0734
      9 C          62.5196   85.3013   11.5560 C.ar    1  UNL1        0.0173
     10 C          62.1900   86.7603   11.6686 C.ar    1  UNL1        0.0046
     11 C          61.5848   87.4846   10.5028 C.ar    1  UNL1        0.0386
     12 H          61.4580   84.8087    8.2728 H       1  UNL1        0.1674
     13 C          63.1249   84.5770   12.7219 C.ar    1  UNL1        0.0068
     14 C          63.7344   85.3522   13.8521 C.ar    1  UNL1        0.0209
     15 C          64.3396   84.6279   15.0180 C.ar    1  UNL1        0.1013
     16 N          64.3353   83.1283   15.0535 N.ar    1  UNL1       -0.2165
     17 C          63.7258   82.3531   13.9231 C.ar    1  UNL1        0.2223
     18 F          63.7215   80.8535   13.9586 F       1  UNL1       -0.1832
     19 C          63.1206   83.0774   12.7574 C.ar    1  UNL1        0.0497
     20 C          64.5042   91.0233   13.3781 C.ar    1  UNL1        0.0920
     21 C          65.2493   91.8109   12.3415 C.ar    1  UNL1        0.0204
     22 C          64.6619   91.9945   10.9735 C.ar    1  UNL1        0.0312
     23 C          63.3295   91.3904   10.6422 C.ar    1  UNL1        0.1454
     24 F          62.7421   91.5740    9.2742 F       1  UNL1       -0.2040
     25 C          62.5845   90.6028   11.6788 C.ar    1  UNL1        0.0951
     26 C          63.1719   90.4193   13.0467 C.ar    1  UNL1        0.1598
     27 F          62.4268   89.6316   14.0833 F       1  UNL1       -0.2026
     28 N          65.0916   90.8398   14.7461 N.pl3   1  UNL1       -0.2166
     29 H          64.8987   90.0219   15.2590 H       1  UNL1        0.1734
     30 S          65.9730   91.9024   15.3325 S.O2    1  UNL1        0.0540
     31 O          67.1698   91.2622   14.6938 O.2     1  UNL1       -0.1545
     32 O          64.7763   92.5426   15.9712 O.2     1  UNL1       -0.1545
     33 C          66.8543   92.9650   15.9190 C.3     1  UNL1        0.1724
     34 C          69.2673   93.9277   15.9567 C.3     1  UNL1        0.0019
     35 C          68.3371   92.7516   15.9958 C.3     1  UNL1        0.0273
@<TRIPOS>BOND
     1    34    35    1
     2    35    33    1
     3    33    30    1
     4    30    31    2
     5    30    32    2
     6    30    28    1
     7    28    20    1
     8    20    21   ar
     9    21    22   ar
    10    22    23   ar
    11    23    24    1
    12    23    25   ar
    13    25     1    1
    14     1     2    2
    15     1     3    1
    16     3     4   ar
    17     4     5   ar
    18     5     6   ar
    19     6     7   ar
    20     7     8   ar
    21     8     9   ar
    22     9    13    1
    23    13    14   ar
    24    14    15   ar
    25    15    16   ar
    26    16    17   ar
    27    17    18    1
    28    17    19   ar
    29     9    10   ar
    30    10    11   ar
    31    25    26   ar
    32    26    27    1
    33    26    20   ar
    34    11     3   ar
    35    11     6    1
    36    19    13   ar
    37    28    29    1
    38     7    12    1
@<TRIPOS>MOLECULE
*****
 35 38 0 0 0
SMALL
GASTEIGER

@<TRIPOS>ATOM
      1 C          62.8712   89.9034   13.0908 C.2     1  UNL1        0.2015
      2 O          61.9858   89.6746   14.2797 O.2     1  UNL1       -0.2864
      3 C          62.5227   89.2902   11.7670 C.ar    1  UNL1        0.0611
      4 C          62.1310   90.0358   10.5257 C.ar    1  UNL1        0.1037
      5 N          61.8710   89.0301    9.4436 N.ar    1  UNL1       -0.2269
      6 C          62.1019   87.6630   10.0161 C.ar    1  UNL1        0.1407
      7 N          61.9975   86.2925    9.4153 N.ar    1  UNL1       -0.3374
      8 C          62.2958   85.0828   10.2505 C.ar    1  UNL1        0.0734
      9 C          62.6986   85.2436   11.6865 C.ar    1  UNL1        0.0173
     10 C          62.8031   86.6140   12.2872 C.ar    1  UNL1        0.0046
     11 C          62.5047   87.8237   11.4520 C.ar    1  UNL1        0.0386
     12 H          61.7331   86.1870    8.4729 H       1  UNL1        0.1674
     13 C          62.9970   84.0338   12.5216 C.ar    1  UNL1        0.0068
     14 C          63.5559   84.1961   13.9041 C.ar    1  UNL1        0.0209
     15 C          63.8542   82.9863   14.7393 C.ar    1  UNL1        0.1013
     16 N          63.5937   81.6143   14.1920 N.ar    1  UNL1       -0.2165
     17 C          63.0349   81.4520   12.8094 C.ar    1  UNL1        0.2223
     18 F          62.7744   80.0800   12.2620 F       1  UNL1       -0.1832
     19 C          62.7365   82.6618   11.9743 C.ar    1  UNL1        0.0497
     20 C          65.5482   92.7629   12.4524 C.ar    1  UNL1        0.0920
     21 C          66.5733   92.4295   13.4955 C.ar    1  UNL1        0.0204
     22 C          66.3644   91.2540   14.4036 C.ar    1  UNL1        0.0312
     23 C          65.1305   90.4120   14.2688 C.ar    1  UNL1        0.1454
     24 F          64.9216   89.2366   15.1769 F       1  UNL1       -0.2040
     25 C          64.1053   90.7454   13.2257 C.ar    1  UNL1        0.0951
     26 C          64.3142   91.9209   12.3176 C.ar    1  UNL1        0.1598
     27 F          63.2890   92.2542   11.2745 F       1  UNL1       -0.2026
     28 N          65.7571   93.9383   11.5443 N.pl3   1  UNL1       -0.2166
     29 H          65.2224   94.7559   11.6664 H       1  UNL1        0.1734
     30 S          66.7807   93.8681   10.4501 S.O2    1  UNL1        0.0540
     31 O          66.3868   92.4476   10.1727 O.2     1  UNL1       -0.1545
     32 O          67.1747   95.2886   10.7275 O.2     1  UNL1       -0.1545
     33 C          67.8044   93.7980    9.3560 C.3     1  UNL1        0.1724
     34 C          69.0792   91.8487    8.2047 C.3     1  UNL1        0.0019
     35 C          68.8689   92.7417    9.3914 C.3     1  UNL1        0.0273
@<TRIPOS>BOND
     1    34    35    1
     2    35    33    1
     3    33    30    1
     4    30    31    2
     5    30    32    2
     6    30    28    1
     7    28    20    1
     8    20    21   ar
     9    21    22   ar
    10    22    23   ar
    11    23    24    1
    12    23    25   ar
    13    25     1    1
    14     1     2    2
    15     1     3    1
    16     3     4   ar
    17     4     5   ar
    18     5     6   ar
    19     6     7   ar
    20     7     8   ar
    21     8     9   ar
    22     9    13    1
    23    13    14   ar
    24    14    15   ar
    25    15    16   ar
    26    16    17   ar
    27    17    18    1
    28    17    19   ar
    29     9    10   ar
    30    10    11   ar
    31    25    26   ar
    32    26    27    1
    33    26    20   ar
    34    11     3   ar
    35    11     6    1
    36    19    13   ar
    37    28    29    1
    38     7    12    1
@<TRIPOS>MOLECULE
*****
 35 38 0 0 0
SMALL
GASTEIGER

@<TRIPOS>ATOM
      1 C          60.6600   90.1679   10.7812 C.2     1  UNL1        0.2015
      2 O          59.3913   90.8059   11.2642 O.2     1  UNL1       -0.2864
      3 C          60.6075   89.0845    9.7452 C.ar    1  UNL1        0.0611
      4 C          60.0077   89.2028    8.3754 C.ar    1  UNL1        0.1037
      5 N          60.1752   87.8840    7.6807 N.ar    1  UNL1       -0.2269
      6 C          60.8786   86.9507    8.6210 C.ar    1  UNL1        0.1407
      7 N          61.3103   85.5211    8.4802 N.ar    1  UNL1       -0.3374
      8 C          62.0093   84.8335    9.6154 C.ar    1  UNL1        0.0734
      9 C          62.2765   85.5755   10.8914 C.ar    1  UNL1        0.0173
     10 C          61.8447   87.0051   11.0321 C.ar    1  UNL1        0.0046
     11 C          61.1458   87.6927    9.8969 C.ar    1  UNL1        0.0386
     12 H          61.1350   85.0341    7.6428 H       1  UNL1        0.1674
     13 C          62.9754   84.8878   12.0266 C.ar    1  UNL1        0.0068
     14 C          63.5120   85.6913   13.1739 C.ar    1  UNL1        0.0209
     15 C          64.2110   85.0037   14.3092 C.ar    1  UNL1        0.1013
     16 N          64.3733   83.5125   14.2969 N.ar    1  UNL1       -0.2165
     17 C          63.8367   82.7090   13.1495 C.ar    1  UNL1        0.2223
     18 F          63.9990   81.2179   13.1373 F       1  UNL1       -0.1832
     19 C          63.1377   83.3967   12.0144 C.ar    1  UNL1        0.0497
     20 C          63.6063   90.8732   13.3449 C.ar    1  UNL1        0.0920
     21 C          64.6236   91.5041   12.4410 C.ar    1  UNL1        0.0204
     22 C          64.3197   91.6896   10.9838 C.ar    1  UNL1        0.0312
     23 C          62.9985   91.2443   10.4306 C.ar    1  UNL1        0.1454
     24 F          62.6946   91.4298    8.9734 F       1  UNL1       -0.2040
     25 C          61.9812   90.6134   11.3345 C.ar    1  UNL1        0.0951
     26 C          62.2851   90.4279   12.7916 C.ar    1  UNL1        0.1598
     27 F          61.2678   89.7969   13.6955 F       1  UNL1       -0.2026
     28 N          63.9102   90.6877   14.8020 N.pl3   1  UNL1       -0.2166
     29 H          64.2067   91.4539   15.3444 H       1  UNL1        0.1734
     30 S          63.7622   89.3349   15.4327 S.O2    1  UNL1        0.0540
     31 O          62.8351   89.9148   16.4593 O.2     1  UNL1       -0.1545
     32 O          64.6893   88.7549   14.4061 O.2     1  UNL1       -0.1545
     33 C          63.6143   87.9819   16.0633 C.3     1  UNL1        0.1724
     34 C          62.6108   86.4716   17.9240 C.3     1  UNL1        0.0019
     35 C          62.8796   87.8365   17.3630 C.3     1  UNL1        0.0273
@<TRIPOS>BOND
     1    34    35    1
     2    35    33    1
     3    33    30    1
     4    30    31    2
     5    30    32    2
     6    30    28    1
     7    28    20    1
     8    20    21   ar
     9    21    22   ar
    10    22    23   ar
    11    23    24    1
    12    23    25   ar
    13    25     1    1
    14     1     2    2
    15     1     3    1
    16     3     4   ar
    17     4     5   ar
    18     5     6   ar
    19     6     7   ar
    20     7     8   ar
    21     8     9   ar
    22     9    13    1
    23    13    14   ar
    24    14    15   ar
    25    15    16   ar
    26    16    17   ar
    27    17    18    1
    28    17    19   ar
    29     9    10   ar
    30    10    11   ar
    31    25    26   ar
    32    26    27    1
    33    26    20   ar
    34    11     3   ar
    35    11     6    1
    36    19    13   ar
    37    28    29    1
    38     7    12    1
@<TRIPOS>MOLECULE
*****
 35 38 0 0 0
SMALL
GASTEIGER

@<TRIPOS>ATOM
      1 C          63.4465   89.7694   13.5658 C.2     1  UNL1        0.2015
      2 O          62.2507   90.1630   12.7505 O.2     1  UNL1       -0.2864
      3 C          63.7321   88.3202   13.8271 C.ar    1  UNL1        0.0611
      4 C          64.3951   87.7587   15.0499 C.ar    1  UNL1        0.1037
      5 N          64.4776   86.2696   14.8899 N.ar    1  UNL1       -0.2269
      6 C          63.8656   85.9107   13.5683 C.ar    1  UNL1        0.1407
      7 N          63.6684   84.5936   12.8781 N.ar    1  UNL1       -0.3374
      8 C          63.0105   84.5439   11.5311 C.ar    1  UNL1        0.0734
      9 C          62.5498   85.8113   10.8742 C.ar    1  UNL1        0.0173
     10 C          62.7470   87.1284   11.5643 C.ar    1  UNL1        0.0046
     11 C          63.4049   87.1780   12.9114 C.ar    1  UNL1        0.0386
     12 H          63.9708   83.7618   13.3092 H       1  UNL1        0.1674
     13 C          61.8918   85.7615    9.5270 C.ar    1  UNL1        0.0068
     14 C          62.5927   85.1068    8.3738 C.ar    1  UNL1        0.0209
     15 C          61.9347   85.0570    7.0266 C.ar    1  UNL1        0.1013
     16 N          60.5759   85.6621    6.8329 N.ar    1  UNL1       -0.2165
     17 C          59.8751   86.3169    7.9862 C.ar    1  UNL1        0.2223
     18 F          58.5163   86.9220    7.7924 F       1  UNL1       -0.1832
     19 C          60.5330   86.3666    9.3332 C.ar    1  UNL1        0.0497
     20 C          66.1961   92.6246   13.7610 C.ar    1  UNL1        0.0920
     21 C          66.1775   92.9362   15.2281 C.ar    1  UNL1        0.0204
     22 C          65.2486   92.1922   16.1412 C.ar    1  UNL1        0.0312
     23 C          64.3383   91.1366   15.5871 C.ar    1  UNL1        0.1454
     24 F          63.4094   90.3926   16.5002 F       1  UNL1       -0.2040
     25 C          64.3569   90.8250   14.1200 C.ar    1  UNL1        0.0951
     26 C          65.2857   91.5690   13.2069 C.ar    1  UNL1        0.1598
     27 F          65.3043   91.2574   11.7398 F       1  UNL1       -0.2026
     28 N          67.1249   93.3686   12.8479 N.pl3   1  UNL1       -0.2166
     29 H          67.9292   93.8040   13.2123 H       1  UNL1        0.1734
     30 S          66.8283   93.4492   11.3798 S.O2    1  UNL1        0.0540
     31 O          67.8950   92.4301   11.1083 O.2     1  UNL1       -0.1545
     32 O          65.7617   94.4683   11.6512 O.2     1  UNL1       -0.1545
     33 C          66.5317   93.5299    9.9117 C.3     1  UNL1        0.1724
     34 C          67.5701   95.6189    8.7679 C.3     1  UNL1        0.0019
     35 C          67.5363   94.1338    8.9756 C.3     1  UNL1        0.0273
@<TRIPOS>BOND
     1    34    35    1
     2    35    33    1
     3    33    30    1
     4    30    31    2
     5    30    32    2
     6    30    28    1
     7    28    20    1
     8    20    21   ar
     9    21    22   ar
    10    22    23   ar
    11    23    24    1
    12    23    25   ar
    13    25     1    1
    14     1     2    2
    15     1     3    1
    16     3     4   ar
    17     4     5   ar
    18     5     6   ar
    19     6     7   ar
    20     7     8   ar
    21     8     9   ar
    22     9    13    1
    23    13    14   ar
    24    14    15   ar
    25    15    16   ar
    26    16    17   ar
    27    17    18    1
    28    17    19   ar
    29     9    10   ar
    30    10    11   ar
    31    25    26   ar
    32    26    27    1
    33    26    20   ar
    34    11     3   ar
    35    11     6    1
    36    19    13   ar
    37    28    29    1
    38     7    12    1
