@<TRIPOS>MOLECULE
*****
 32 34 0 0 0
SMALL
GASTEIGER

@<TRIPOS>ATOM
      1 C          63.7649   86.7919   13.6011 C.ar    1  UNL1        0.0537
      2 C          63.1711   87.5220   12.4330 C.ar    1  UNL1        0.0042
      3 C          63.2521   89.0182   12.3639 C.ar    1  UNL1       -0.0025
      4 C          63.9270   89.7843   13.4628 C.ar    1  UNL1       -0.0025
      5 C          64.5209   89.0542   14.6308 C.ar    1  UNL1       -0.0025
      6 C          64.4398   87.5580   14.7000 C.ar    1  UNL1        0.0042
      7 N          62.6443   84.5634   12.8746 N.am    1  UNL1       -0.2794
      8 C          63.6839   85.2957   13.6702 C.2     1  UNL1        0.2495
      9 O          64.6424   84.5318   14.5348 O.2     1  UNL1       -0.2698
     10 H          62.0152   85.0647   12.3071 H       1  UNL1        0.1552
     11 N          63.6935   82.8981   10.6105 N.pl3   1  UNL1       -0.3560
     12 C          63.0878   82.2345   11.8117 C.ar    1  UNL1        0.0552
     13 C          63.0067   80.7383   11.8808 C.ar    1  UNL1        0.0153
     14 C          62.4010   80.0748   13.0820 C.ar    1  UNL1        0.0013
     15 C          61.8764   80.9073   14.2140 C.ar    1  UNL1        0.0014
     16 C          61.9575   82.4035   14.1449 C.ar    1  UNL1        0.0159
     17 C          62.5632   83.0671   12.9437 C.ar    1  UNL1        0.0636
     18 H          64.0378   82.3516    9.8675 H       1  UNL1        0.1424
     19 H          63.7467   83.8801   10.5652 H       1  UNL1        0.1424
     20 C          64.0081   91.2806   13.3937 C.3     1  UNL1        0.1194
     21 N          65.0189   91.9364   12.5003 N.am    1  UNL1       -0.2665
     22 C          66.4303   92.1208   12.9732 C.2     1  UNL1        0.4022
     23 O          66.8310   91.6493   14.3397 O.2     1  UNL1       -0.2264
     24 H          64.7559   92.2459   11.6034 H       1  UNL1        0.1531
     25 O          67.4411   92.7766   12.0798 O.3     1  UNL1       -0.4296
     26 C          67.1788   92.8905   10.6074 C.3     1  UNL1        0.2382
     27 C          66.7859   94.2116   10.0155 C.ar    1  UNL1        0.0405
     28 C          67.4771   94.7169    8.7839 C.ar    1  UNL1        0.0025
     29 C          67.0843   96.0380    8.1920 C.ar    1  UNL1        0.0205
     30 C          66.0002   96.8538    8.8317 C.ar    1  UNL1        0.0989
     31 N          65.3089   96.3485   10.0633 N.ar    1  UNL1       -0.2425
     32 C          65.7018   95.0274   10.6552 C.ar    1  UNL1        0.0982
@<TRIPOS>BOND
     1    11    12    1
     2    12    13   ar
     3    13    14   ar
     4    14    15   ar
     5    15    16   ar
     6    16    17   ar
     7    17     7    1
     8     7     8   am
     9     8     9    2
    10     8     1    1
    11     1     2   ar
    12     2     3   ar
    13     3     4   ar
    14     4    20    1
    15    20    21    1
    16    21    22   am
    17    22    23    2
    18    22    25    1
    19    25    26    1
    20    26    27    1
    21    27    28   ar
    22    28    29   ar
    23    29    30   ar
    24    30    31   ar
    25    31    32   ar
    26     4     5   ar
    27     5     6   ar
    28    17    12   ar
    29     6     1   ar
    30    32    27   ar
    31    11    18    1
    32    11    19    1
    33     7    10    1
    34    21    24    1
@<TRIPOS>MOLECULE
*****
 32 34 0 0 0
SMALL
GASTEIGER

@<TRIPOS>ATOM
      1 C          61.3060   86.6957    9.4647 C.ar    1  UNL1        0.0537
      2 C          61.2766   88.1790    9.6863 C.ar    1  UNL1        0.0042
      3 C          60.4476   89.0543    8.7938 C.ar    1  UNL1       -0.0025
      4 C          59.6481   88.4464    7.6798 C.ar    1  UNL1       -0.0025
      5 C          59.6775   86.9632    7.4582 C.ar    1  UNL1       -0.0025
      6 C          60.5065   86.0878    8.3507 C.ar    1  UNL1        0.0042
      7 N          61.9553   85.8821   11.8451 N.am    1  UNL1       -0.2794
      8 C          62.1350   85.8204   10.3572 C.2     1  UNL1        0.2495
      9 O          63.1437   84.8834    9.7618 O.2     1  UNL1       -0.2698
     10 H          61.2933   86.4971   12.2359 H       1  UNL1        0.1552
     11 N          63.8397   87.1164   13.8265 N.pl3   1  UNL1       -0.3560
     12 C          63.7265   85.6239   13.7283 C.ar    1  UNL1        0.0552
     13 C          64.5555   84.7485   14.6208 C.ar    1  UNL1        0.0153
     14 C          64.4423   83.2560   14.5226 C.ar    1  UNL1        0.0013
     15 C          63.5001   82.6389   13.5319 C.ar    1  UNL1        0.0014
     16 C          62.6712   83.5142   12.6395 C.ar    1  UNL1        0.0159
     17 C          62.7844   85.0067   12.7377 C.ar    1  UNL1        0.0636
     18 H          64.4581   87.5214   14.4767 H       1  UNL1        0.1424
     19 H          63.2956   87.6909   13.2407 H       1  UNL1        0.1424
     20 C          58.8191   89.3218    6.7872 C.3     1  UNL1        0.1194
     21 N          59.4473   90.4932    6.0921 N.am    1  UNL1       -0.2665
     22 C          58.5933   91.4497    5.3138 C.2     1  UNL1        0.4022
     23 O          57.1112   91.2348    5.2305 O.2     1  UNL1       -0.2264
     24 H          60.4201   90.6342    6.1468 H       1  UNL1        0.1531
     25 O          59.2216   92.6211    4.6187 O.3     1  UNL1       -0.4296
     26 C          59.5172   92.5513    3.1498 C.3     1  UNL1        0.2382
     27 C          60.8749   92.9333    2.6390 C.ar    1  UNL1        0.0405
     28 C          62.0647   92.0778    2.9590 C.ar    1  UNL1        0.0025
     29 C          63.4223   92.4599    2.4482 C.ar    1  UNL1        0.0205
     30 C          63.5901   93.6975    1.6175 C.ar    1  UNL1        0.0989
     31 N          62.4003   94.5531    1.2975 N.ar    1  UNL1       -0.2425
     32 C          61.0426   94.1710    1.8082 C.ar    1  UNL1        0.0982
@<TRIPOS>BOND
     1    11    12    1
     2    12    13   ar
     3    13    14   ar
     4    14    15   ar
     5    15    16   ar
     6    16    17   ar
     7    17     7    1
     8     7     8   am
     9     8     9    2
    10     8     1    1
    11     1     2   ar
    12     2     3   ar
    13     3     4   ar
    14     4    20    1
    15    20    21    1
    16    21    22   am
    17    22    23    2
    18    22    25    1
    19    25    26    1
    20    26    27    1
    21    27    28   ar
    22    28    29   ar
    23    29    30   ar
    24    30    31   ar
    25    31    32   ar
    26     4     5   ar
    27     5     6   ar
    28    17    12   ar
    29     6     1   ar
    30    32    27   ar
    31    11    18    1
    32    11    19    1
    33     7    10    1
    34    21    24    1
@<TRIPOS>MOLECULE
*****
 32 34 0 0 0
SMALL
GASTEIGER

@<TRIPOS>ATOM
      1 C          64.6735   91.3907   12.3483 C.ar    1  UNL1        0.0537
      2 C          63.7041   90.2897   12.0352 C.ar    1  UNL1        0.0042
      3 C          63.4410   89.2124   13.0452 C.ar    1  UNL1       -0.0025
      4 C          64.1473   89.2361   14.3683 C.ar    1  UNL1       -0.0025
      5 C          65.1167   90.3370   14.6813 C.ar    1  UNL1       -0.0025
      6 C          65.3798   91.4144   13.6714 C.ar    1  UNL1        0.0042
      7 N          65.9893   93.5034   11.6029 N.am    1  UNL1       -0.2794
      8 C          64.9366   92.4681   11.3383 C.2     1  UNL1        0.2495
      9 O          64.1470   92.5101   10.0636 O.2     1  UNL1       -0.2698
     10 H          66.5075   93.4758   12.4395 H       1  UNL1        0.1552
     11 N          68.3160   93.2627    9.7245 N.pl3   1  UNL1       -0.3560
     12 C          67.4157   94.4604    9.6537 C.ar    1  UNL1        0.0552
     13 C          67.6787   95.5377    8.6437 C.ar    1  UNL1        0.0153
     14 C          66.7785   96.7354    8.5729 C.ar    1  UNL1        0.0013
     15 C          65.6151   96.8558    9.5121 C.ar    1  UNL1        0.0014
     16 C          65.3521   95.7784   10.5221 C.ar    1  UNL1        0.0159
     17 C          66.2524   94.5807   10.5929 C.ar    1  UNL1        0.0636
     18 H          69.0796   93.1837    9.1080 H       1  UNL1        0.1424
     19 H          68.1433   92.5556   10.3874 H       1  UNL1        0.1424
     20 C          63.8842   88.1587   15.3783 C.3     1  UNL1        0.1194
     21 N          64.2777   86.7416   15.0831 N.am    1  UNL1       -0.2665
     22 C          63.5749   85.6092   15.7713 C.2     1  UNL1        0.4022
     23 O          62.4786   85.8938   16.7546 O.2     1  UNL1       -0.2264
     24 H          64.9973   86.5549   14.4377 H       1  UNL1        0.1531
     25 O          63.9685   84.1922   15.4761 O.3     1  UNL1       -0.4296
     26 C          63.1418   83.3642   14.5375 C.3     1  UNL1        0.2382
     27 C          63.3827   83.4411   13.0589 C.ar    1  UNL1        0.0405
     28 C          62.6862   84.4862   12.2389 C.ar    1  UNL1        0.0025
     29 C          62.9271   84.5631   10.7604 C.ar    1  UNL1        0.0205
     30 C          63.8645   83.5949   10.1019 C.ar    1  UNL1        0.0989
     31 N          64.5611   82.5497   10.9219 N.ar    1  UNL1       -0.2425
     32 C          64.3202   82.4728   12.4004 C.ar    1  UNL1        0.0982
@<TRIPOS>BOND
     1    11    12    1
     2    12    13   ar
     3    13    14   ar
     4    14    15   ar
     5    15    16   ar
     6    16    17   ar
     7    17     7    1
     8     7     8   am
     9     8     9    2
    10     8     1    1
    11     1     2   ar
    12     2     3   ar
    13     3     4   ar
    14     4    20    1
    15    20    21    1
    16    21    22   am
    17    22    23    2
    18    22    25    1
    19    25    26    1
    20    26    27    1
    21    27    28   ar
    22    28    29   ar
    23    29    30   ar
    24    30    31   ar
    25    31    32   ar
    26     4     5   ar
    27     5     6   ar
    28    17    12   ar
    29     6     1   ar
    30    32    27   ar
    31    11    18    1
    32    11    19    1
    33     7    10    1
    34    21    24    1
@<TRIPOS>MOLECULE
*****
 32 34 0 0 0
SMALL
GASTEIGER

@<TRIPOS>ATOM
      1 C          63.5131   86.7795   13.2103 C.ar    1  UNL1        0.0537
      2 C          63.2320   88.0185   12.4130 C.ar    1  UNL1        0.0042
      3 C          63.6070   89.3638   12.9602 C.ar    1  UNL1       -0.0025
      4 C          64.2631   89.4701   14.3049 C.ar    1  UNL1       -0.0025
      5 C          64.5443   88.2311   15.1022 C.ar    1  UNL1       -0.0025
      6 C          64.1693   86.8858   14.5550 C.ar    1  UNL1        0.0042
      7 N          63.9305   84.2203   13.0483 N.am    1  UNL1       -0.2794
      8 C          63.1381   85.4342   12.6630 C.2     1  UNL1        0.2495
      9 O          61.9707   85.3029   11.7303 O.2     1  UNL1       -0.2698
     10 H          64.6967   84.3065   13.6604 H       1  UNL1        0.1552
     11 N          62.6658   82.1719   14.8385 N.pl3   1  UNL1       -0.3560
     12 C          62.9231   81.8508   13.3961 C.ar    1  UNL1        0.0552
     13 C          62.5481   80.5056   12.8487 C.ar    1  UNL1        0.0153
     14 C          62.8054   80.1845   11.4063 C.ar    1  UNL1        0.0013
     15 C          63.4377   81.2086   10.5112 C.ar    1  UNL1        0.0014
     16 C          63.8127   82.5539   11.0585 C.ar    1  UNL1        0.0159
     17 C          63.5554   82.8750   12.5010 C.ar    1  UNL1        0.0636
     18 H          62.2508   81.4997   15.4260 H       1  UNL1        0.1424
     19 H          62.9119   83.0549   15.1978 H       1  UNL1        0.1424
     20 C          64.6382   90.8154   14.8522 C.3     1  UNL1        0.1194
     21 N          65.2492   91.8477   13.9516 N.am    1  UNL1       -0.2665
     22 C          66.1913   92.8705   14.5139 C.2     1  UNL1        0.4022
     23 O          66.5224   92.8610   15.9769 O.2     1  UNL1       -0.2264
     24 H          65.0318   91.8540   12.9914 H       1  UNL1        0.1531
     25 O          66.8022   93.9028   13.6134 O.3     1  UNL1       -0.4296
     26 C          66.1932   94.1823   12.2714 C.3     1  UNL1        0.2382
     27 C          66.9211   93.7878   11.0206 C.ar    1  UNL1        0.0405
     28 C          67.4608   92.3959   10.8742 C.ar    1  UNL1        0.0025
     29 C          68.1887   92.0014    9.6234 C.ar    1  UNL1        0.0205
     30 C          68.3769   92.9987    8.5189 C.ar    1  UNL1        0.0989
     31 N          67.8372   94.3906    8.6652 N.ar    1  UNL1       -0.2425
     32 C          67.1093   94.7852    9.9161 C.ar    1  UNL1        0.0982
@<TRIPOS>BOND
     1    11    12    1
     2    12    13   ar
     3    13    14   ar
     4    14    15   ar
     5    15    16   ar
     6    16    17   ar
     7    17     7    1
     8     7     8   am
     9     8     9    2
    10     8     1    1
    11     1     2   ar
    12     2     3   ar
    13     3     4   ar
    14     4    20    1
    15    20    21    1
    16    21    22   am
    17    22    23    2
    18    22    25    1
    19    25    26    1
    20    26    27    1
    21    27    28   ar
    22    28    29   ar
    23    29    30   ar
    24    30    31   ar
    25    31    32   ar
    26     4     5   ar
    27     5     6   ar
    28    17    12   ar
    29     6     1   ar
    30    32    27   ar
    31    11    18    1
    32    11    19    1
    33     7    10    1
    34    21    24    1
@<TRIPOS>MOLECULE
*****
 32 34 0 0 0
SMALL
GASTEIGER

@<TRIPOS>ATOM
      1 C          64.6770   91.4114   12.7155 C.ar    1  UNL1        0.0537
      2 C          65.3238   91.4676   14.0677 C.ar    1  UNL1        0.0042
      3 C          64.9532   90.4637   15.1187 C.ar    1  UNL1       -0.0025
      4 C          63.9358   89.4035   14.8176 C.ar    1  UNL1       -0.0025
      5 C          63.2889   89.3472   13.4654 C.ar    1  UNL1       -0.0025
      6 C          63.6595   90.3511   12.4143 C.ar    1  UNL1        0.0042
      7 N          66.0550   93.4839   11.9700 N.am    1  UNL1       -0.2794
      8 C          65.0476   92.4154   11.6644 C.2     1  UNL1        0.2495
      9 O          64.4108   92.3508   10.3078 O.2     1  UNL1       -0.2698
     10 H          66.4729   93.5262   12.8603 H       1  UNL1        0.1552
     11 N          68.0588   92.7705    9.8543 N.pl3   1  UNL1       -0.3560
     12 C          67.4275   94.1312    9.8611 C.ar    1  UNL1        0.0552
     13 C          67.7981   95.1352    8.8101 C.ar    1  UNL1        0.0153
     14 C          67.1668   96.4958    8.8169 C.ar    1  UNL1        0.0013
     15 C          66.1650   96.8525    9.8747 C.ar    1  UNL1        0.0014
     16 C          65.7944   95.8486   10.9257 C.ar    1  UNL1        0.0159
     17 C          66.4256   94.4879   10.9189 C.ar    1  UNL1        0.0636
     18 H          68.7163   92.5364    9.1600 H       1  UNL1        0.1424
     19 H          67.8155   92.1115   10.5441 H       1  UNL1        0.1424
     20 C          63.5651   88.3995   15.8687 C.3     1  UNL1        0.1194
     21 N          63.7017   86.9327   15.5860 N.am    1  UNL1       -0.2665
     22 C          62.8226   85.9469   16.2969 C.2     1  UNL1        0.4022
     23 O          61.8070   86.4279   17.2904 O.2     1  UNL1       -0.2264
     24 H          64.3683   86.6170   14.9339 H       1  UNL1        0.1531
     25 O          62.9592   84.4801   16.0143 O.3     1  UNL1       -0.4296
     26 C          64.0662   83.9864   15.1308 C.3     1  UNL1        0.2382
     27 C          63.7437   83.2362   13.8725 C.ar    1  UNL1        0.0405
     28 C          64.3868   83.6331   12.5769 C.ar    1  UNL1        0.0025
     29 C          64.0643   82.8829   11.3187 C.ar    1  UNL1        0.0205
     30 C          63.0986   81.7357   11.3561 C.ar    1  UNL1        0.0989
     31 N          62.4554   81.3387   12.6518 N.ar    1  UNL1       -0.2425
     32 C          62.7779   82.0890   13.9100 C.ar    1  UNL1        0.0982
@<TRIPOS>BOND
     1    11    12    1
     2    12    13   ar
     3    13    14   ar
     4    14    15   ar
     5    15    16   ar
     6    16    17   ar
     7    17     7    1
     8     7     8   am
     9     8     9    2
    10     8     1    1
    11     1     2   ar
    12     2     3   ar
    13     3     4   ar
    14     4    20    1
    15    20    21    1
    16    21    22   am
    17    22    23    2
    18    22    25    1
    19    25    26    1
    20    26    27    1
    21    27    28   ar
    22    28    29   ar
    23    29    30   ar
    24    30    31   ar
    25    31    32   ar
    26     4     5   ar
    27     5     6   ar
    28    17    12   ar
    29     6     1   ar
    30    32    27   ar
    31    11    18    1
    32    11    19    1
    33     7    10    1
    34    21    24    1
@<TRIPOS>MOLECULE
*****
 32 34 0 0 0
SMALL
GASTEIGER

@<TRIPOS>ATOM
      1 C          63.9426   89.0956   15.3462 C.ar    1  UNL1        0.0537
      2 C          63.1537   88.9243   16.6104 C.ar    1  UNL1        0.0042
      3 C          62.8106   87.5485   17.0998 C.ar    1  UNL1       -0.0025
      4 C          63.2565   86.3440   16.3250 C.ar    1  UNL1       -0.0025
      5 C          64.0455   86.5154   15.0608 C.ar    1  UNL1       -0.0025
      6 C          64.3885   87.8911   14.5714 C.ar    1  UNL1        0.0042
      7 N          65.2574   90.6452   13.7275 N.am    1  UNL1       -0.2794
      8 C          64.2856   90.4715   14.8569 C.2     1  UNL1        0.2495
      9 O          63.6569   91.6735   15.4969 O.2     1  UNL1       -0.2698
     10 H          65.6701   89.8562   13.3075 H       1  UNL1        0.1552
     11 N          64.4566   91.4978   10.9650 N.pl3   1  UNL1       -0.3560
     12 C          65.2000   92.4473   11.8569 C.ar    1  UNL1        0.0552
     13 C          65.5430   93.8231   11.3677 C.ar    1  UNL1        0.0153
     14 C          66.2865   94.7727   12.2596 C.ar    1  UNL1        0.0013
     15 C          66.6869   94.3464   13.6409 C.ar    1  UNL1        0.0014
     16 C          66.3439   92.9706   14.1302 C.ar    1  UNL1        0.0159
     17 C          65.6004   92.0211   13.2382 C.ar    1  UNL1        0.0636
     18 H          64.1938   91.7775   10.0584 H       1  UNL1        0.1424
     19 H          64.2314   90.5948   11.2861 H       1  UNL1        0.1424
     20 C          62.9135   84.9682   16.8143 C.3     1  UNL1        0.1194
     21 N          62.3389   83.9569   15.8671 N.am    1  UNL1       -0.2665
     22 C          63.2460   83.0050   15.1453 C.2     1  UNL1        0.4022
     23 O          64.7278   83.0645   15.3707 O.2     1  UNL1       -0.2264
     24 H          61.3664   83.9179   15.7192 H       1  UNL1        0.1531
     25 O          62.6714   81.9938   14.1982 O.3     1  UNL1       -0.4296
     26 C          63.2832   81.8041   12.8418 C.3     1  UNL1        0.2382
     27 C          63.1843   82.8935   11.8155 C.ar    1  UNL1        0.0405
     28 C          63.8488   82.7291   10.4808 C.ar    1  UNL1        0.0025
     29 C          63.7500   83.8186    9.4545 C.ar    1  UNL1        0.0205
     30 C          62.9866   85.0724    9.7628 C.ar    1  UNL1        0.0989
     31 N          62.3220   85.2369   11.0975 N.ar    1  UNL1       -0.2425
     32 C          62.4209   84.1474   12.1239 C.ar    1  UNL1        0.0982
@<TRIPOS>BOND
     1    11    12    1
     2    12    13   ar
     3    13    14   ar
     4    14    15   ar
     5    15    16   ar
     6    16    17   ar
     7    17     7    1
     8     7     8   am
     9     8     9    2
    10     8     1    1
    11     1     2   ar
    12     2     3   ar
    13     3     4   ar
    14     4    20    1
    15    20    21    1
    16    21    22   am
    17    22    23    2
    18    22    25    1
    19    25    26    1
    20    26    27    1
    21    27    28   ar
    22    28    29   ar
    23    29    30   ar
    24    30    31   ar
    25    31    32   ar
    26     4     5   ar
    27     5     6   ar
    28    17    12   ar
    29     6     1   ar
    30    32    27   ar
    31    11    18    1
    32    11    19    1
    33     7    10    1
    34    21    24    1
@<TRIPOS>MOLECULE
*****
 32 34 0 0 0
SMALL
GASTEIGER

@<TRIPOS>ATOM
      1 C          63.7783   91.0510   11.3104 C.ar    1  UNL1        0.0537
      2 C          62.8649   90.7913   10.1493 C.ar    1  UNL1        0.0042
      3 C          62.0386   89.5400   10.1101 C.ar    1  UNL1       -0.0025
      4 C          62.1258   88.5484   11.2322 C.ar    1  UNL1       -0.0025
      5 C          63.0392   88.8081   12.3933 C.ar    1  UNL1       -0.0025
      6 C          63.8654   90.0594   12.4325 C.ar    1  UNL1        0.0042
      7 N          64.8420   93.0839   10.0914 N.am    1  UNL1       -0.2794
      8 C          64.6045   92.3024   11.3495 C.2     1  UNL1        0.2495
      9 O          65.1932   92.7722   12.6467 O.2     1  UNL1       -0.2698
     10 H          64.4556   92.7755    9.2400 H       1  UNL1        0.1552
     11 N          67.6656   93.0493    9.0785 N.pl3   1  UNL1       -0.3560
     12 C          67.0800   94.3179    9.6240 C.ar    1  UNL1        0.0552
     13 C          67.9062   95.5693    9.6631 C.ar    1  UNL1        0.0153
     14 C          67.3206   96.8379   10.2087 C.ar    1  UNL1        0.0013
     15 C          65.9088   96.8552   10.7151 C.ar    1  UNL1        0.0014
     16 C          65.0826   95.6039   10.6760 C.ar    1  UNL1        0.0159
     17 C          65.6682   94.3353   10.1305 C.ar    1  UNL1        0.0636
     18 H          68.5922   93.0380    8.7461 H       1  UNL1        0.1424
     19 H          67.1234   92.2280    9.0528 H       1  UNL1        0.1424
     20 C          61.2996   87.2970   11.1931 C.3     1  UNL1        0.1194
     21 N          61.7260   86.0920   11.9780 N.am    1  UNL1       -0.2665
     22 C          62.5112   85.0018   11.3110 C.2     1  UNL1        0.4022
     23 O          62.8701   85.1168    9.8592 O.2     1  UNL1       -0.2264
     24 H          61.4904   86.0166   12.9309 H       1  UNL1        0.1531
     25 O          62.9376   83.7968   12.0959 O.3     1  UNL1       -0.4296
     26 C          63.9443   83.9378   13.1989 C.3     1  UNL1        0.2382
     27 C          63.6186   84.7591   14.4111 C.ar    1  UNL1        0.0405
     28 C          64.3662   86.0318   14.6778 C.ar    1  UNL1        0.0025
     29 C          64.0405   86.8530   15.8900 C.ar    1  UNL1        0.0205
     30 C          62.9672   86.4015   16.8356 C.ar    1  UNL1        0.0989
     31 N          62.2195   85.1288   16.5689 N.ar    1  UNL1       -0.2425
     32 C          62.5452   84.3075   15.3566 C.ar    1  UNL1        0.0982
@<TRIPOS>BOND
     1    11    12    1
     2    12    13   ar
     3    13    14   ar
     4    14    15   ar
     5    15    16   ar
     6    16    17   ar
     7    17     7    1
     8     7     8   am
     9     8     9    2
    10     8     1    1
    11     1     2   ar
    12     2     3   ar
    13     3     4   ar
    14     4    20    1
    15    20    21    1
    16    21    22   am
    17    22    23    2
    18    22    25    1
    19    25    26    1
    20    26    27    1
    21    27    28   ar
    22    28    29   ar
    23    29    30   ar
    24    30    31   ar
    25    31    32   ar
    26     4     5   ar
    27     5     6   ar
    28    17    12   ar
    29     6     1   ar
    30    32    27   ar
    31    11    18    1
    32    11    19    1
    33     7    10    1
    34    21    24    1
@<TRIPOS>MOLECULE
*****
 32 34 0 0 0
SMALL
GASTEIGER

@<TRIPOS>ATOM
      1 C          63.4699   89.9264   12.5096 C.ar    1  UNL1        0.0537
      2 C          63.1874   88.4663   12.3139 C.ar    1  UNL1        0.0042
      3 C          62.1135   88.0312   11.3613 C.ar    1  UNL1       -0.0025
      4 C          61.3222   89.0563   10.6044 C.ar    1  UNL1       -0.0025
      5 C          61.6047   90.5164   10.8001 C.ar    1  UNL1       -0.0025
      6 C          62.6785   90.9514   11.7527 C.ar    1  UNL1        0.0042
      7 N          65.3635   91.5812   13.1622 N.am    1  UNL1       -0.2794
      8 C          64.5438   90.3614   13.4623 C.2     1  UNL1        0.2495
      9 O          64.7980   89.5765   14.7150 O.2     1  UNL1       -0.2698
     10 H          65.1966   92.0964   12.3400 H       1  UNL1        0.1552
     11 N          68.2074   91.7791   12.2279 N.pl3   1  UNL1       -0.3560
     12 C          67.8593   92.1152   13.6477 C.ar    1  UNL1        0.0552
     13 C          68.9332   92.5502   14.6003 C.ar    1  UNL1        0.0153
     14 C          68.5851   92.8863   16.0202 C.ar    1  UNL1        0.0013
     15 C          67.1632   92.7874   16.4873 C.ar    1  UNL1        0.0014
     16 C          66.0893   92.3524   15.5347 C.ar    1  UNL1        0.0159
     17 C          66.4374   92.0163   14.1149 C.ar    1  UNL1        0.0636
     18 H          69.1407   91.8440   11.9213 H       1  UNL1        0.1424
     19 H          67.5026   91.4936   11.6026 H       1  UNL1        0.1424
     20 C          60.2482   88.6213    9.6517 C.3     1  UNL1        0.1194
     21 N          60.0996   89.3062    8.3255 N.am    1  UNL1       -0.2665
     22 C          59.2956   88.6627    7.2350 C.2     1  UNL1        0.4022
     23 O          58.6402   87.3343    7.4705 O.2     1  UNL1       -0.2264
     24 H          60.5298   90.1782    8.1709 H       1  UNL1        0.1531
     25 O          59.1470   89.3477    5.9088 O.3     1  UNL1       -0.4296
     26 C          59.1761   90.8454    5.8308 C.3     1  UNL1        0.2382
     27 C          59.8844   91.5237    4.6958 C.ar    1  UNL1        0.0405
     28 C          61.3218   91.2039    4.4105 C.ar    1  UNL1        0.0025
     29 C          62.0301   91.8822    3.2755 C.ar    1  UNL1        0.0205
     30 C          61.3010   92.8803    2.4258 C.ar    1  UNL1        0.0989
     31 N          59.8635   93.2002    2.7110 N.ar    1  UNL1       -0.2425
     32 C          59.1552   92.5218    3.8460 C.ar    1  UNL1        0.0982
@<TRIPOS>BOND
     1    11    12    1
     2    12    13   ar
     3    13    14   ar
     4    14    15   ar
     5    15    16   ar
     6    16    17   ar
     7    17     7    1
     8     7     8   am
     9     8     9    2
    10     8     1    1
    11     1     2   ar
    12     2     3   ar
    13     3     4   ar
    14     4    20    1
    15    20    21    1
    16    21    22   am
    17    22    23    2
    18    22    25    1
    19    25    26    1
    20    26    27    1
    21    27    28   ar
    22    28    29   ar
    23    29    30   ar
    24    30    31   ar
    25    31    32   ar
    26     4     5   ar
    27     5     6   ar
    28    17    12   ar
    29     6     1   ar
    30    32    27   ar
    31    11    18    1
    32    11    19    1
    33     7    10    1
    34    21    24    1
@<TRIPOS>MOLECULE
*****
 32 34 0 0 0
SMALL
GASTEIGER

@<TRIPOS>ATOM
      1 C          62.7808   88.7973   11.6212 C.ar    1  UNL1        0.0537
      2 C          62.6604   90.2817   11.8004 C.ar    1  UNL1        0.0042
      3 C          63.1232   90.9233   13.0747 C.ar    1  UNL1       -0.0025
      4 C          63.7064   90.0805   14.1700 C.ar    1  UNL1       -0.0025
      5 C          63.8268   88.5961   13.9908 C.ar    1  UNL1       -0.0025
      6 C          63.3640   87.9545   12.7164 C.ar    1  UNL1        0.0042
      7 N          62.4598   86.6744   10.1582 N.am    1  UNL1       -0.2794
      8 C          62.3180   88.1557   10.3467 C.2     1  UNL1        0.2495
      9 O          61.7133   88.9955    9.2608 O.2     1  UNL1       -0.2698
     10 H          62.8567   86.1232   10.8709 H       1  UNL1        0.1552
     11 N          59.6144   86.9965    9.2638 N.pl3   1  UNL1       -0.3560
     12 C          60.5743   86.1939    8.4365 C.ar    1  UNL1        0.0552
     13 C          60.1115   85.5523    7.1621 C.ar    1  UNL1        0.0153
     14 C          61.0714   84.7496    6.3349 C.ar    1  UNL1        0.0013
     15 C          62.4941   84.5886    6.7820 C.ar    1  UNL1        0.0014
     16 C          62.9569   85.2302    8.0564 C.ar    1  UNL1        0.0159
     17 C          61.9970   86.0328    8.8837 C.ar    1  UNL1        0.0636
     18 H          58.6806   87.1022    8.9703 H       1  UNL1        0.1424
     19 H          59.9182   87.4176   10.1002 H       1  UNL1        0.1424
     20 C          64.1693   90.7221   15.4444 C.3     1  UNL1        0.1194
     21 N          65.4649   91.4773   15.4764 N.am    1  UNL1       -0.2665
     22 C          65.6988   92.5210   16.5280 C.2     1  UNL1        0.4022
     23 O          64.6372   92.8095   17.5476 O.2     1  UNL1       -0.2264
     24 H          66.1617   91.2879   14.8072 H       1  UNL1        0.1531
     25 O          66.9945   93.2762   16.5600 O.3     1  UNL1       -0.4296
     26 C          68.0239   93.0450   15.4938 C.3     1  UNL1        0.2382
     27 C          67.6123   92.9945   14.0523 C.ar    1  UNL1        0.0405
     28 C          66.5859   93.9563   13.5312 C.ar    1  UNL1        0.0025
     29 C          66.1743   93.9058   12.0897 C.ar    1  UNL1        0.0205
     30 C          66.7892   92.8935   11.1692 C.ar    1  UNL1        0.0989
     31 N          67.8156   91.9317   11.6902 N.ar    1  UNL1       -0.2425
     32 C          68.2272   91.9822   13.1318 C.ar    1  UNL1        0.0982
@<TRIPOS>BOND
     1    11    12    1
     2    12    13   ar
     3    13    14   ar
     4    14    15   ar
     5    15    16   ar
     6    16    17   ar
     7    17     7    1
     8     7     8   am
     9     8     9    2
    10     8     1    1
    11     1     2   ar
    12     2     3   ar
    13     3     4   ar
    14     4    20    1
    15    20    21    1
    16    21    22   am
    17    22    23    2
    18    22    25    1
    19    25    26    1
    20    26    27    1
    21    27    28   ar
    22    28    29   ar
    23    29    30   ar
    24    30    31   ar
    25    31    32   ar
    26     4     5   ar
    27     5     6   ar
    28    17    12   ar
    29     6     1   ar
    30    32    27   ar
    31    11    18    1
    32    11    19    1
    33     7    10    1
    34    21    24    1
