@<TRIPOS>MOLECULE
*****
 16 18 0 0 0
SMALL
GASTEIGER

@<TRIPOS>ATOM
      1 O          63.8495   84.1070   15.8268 O.3     1  UNL1       -0.4724
      2 CL         63.2412   90.0377   16.5032 Cl      1  UNL1       -0.0613
      3 C          63.3933   88.5550   16.3341 C.ar    1  UNL1        0.1386
      4 C          62.8597   87.6222   17.3805 C.ar    1  UNL1        0.0339
      5 C          63.0118   86.1395   17.2114 C.ar    1  UNL1        0.0410
      6 C          63.6974   85.5897   15.9959 C.ar    1  UNL1        0.1578
      7 C          64.2310   86.5225   14.9495 C.ar    1  UNL1        0.1366
      8 N          64.0789   88.0052   15.1186 N.ar    1  UNL1       -0.2293
      9 C          62.9199   83.3564   14.9199 C.3     1  UNL1        0.2210
     10 C          63.3054   83.1052   13.4922 C.3     1  UNL1        0.0983
     11 C          62.5222   82.3031   12.4955 C.3     1  UNL1        0.0209
     12 C          63.2744   82.3143   11.1978 C.3     1  UNL1        0.0172
     13 C          64.2323   82.5013   10.0587 C.3     1  UNL1        0.0171
     14 C          64.5225   83.1233   11.3924 C.3     1  UNL1        0.0541
     15 N          64.5417   83.6121   12.8104 N.3     1  UNL1       -0.2966
     16 H          64.5515   84.6320   12.8249 H       1  UNL1        0.1233
@<TRIPOS>BOND
     1     2     3    1
     2     3     4   ar
     3     4     5   ar
     4     5     6   ar
     5     6     1    1
     6     1     9    1
     7    10     9    1
     8    10    11    1
     9    12    11    1
    10    12    13    1
    11    14    13    1
    12    14    15    1
    13     6     7   ar
    14     7     8   ar
    15     8     3   ar
    16    15    10    1
    17    14    12    1
    18    15    16    1
@<TRIPOS>MOLECULE
*****
 16 18 0 0 0
SMALL
GASTEIGER

@<TRIPOS>ATOM
      1 O          63.8844   91.8013   12.8777 O.3     1  UNL1       -0.4724
      2 CL         61.8751   86.7683   10.3023 Cl      1  UNL1       -0.0613
      3 C          62.3775   88.0266   10.9462 C.ar    1  UNL1        0.1386
      4 C          62.2204   89.3427   10.2440 C.ar    1  UNL1        0.0339
      5 C          62.7227   90.6009   10.8878 C.ar    1  UNL1        0.0410
      6 C          63.3821   90.5430   12.2338 C.ar    1  UNL1        0.1578
      7 C          63.5392   89.2269   12.9360 C.ar    1  UNL1        0.1366
      8 N          63.0368   87.9687   12.2922 N.ar    1  UNL1       -0.2293
      9 C          65.2400   92.3360   12.5224 C.3     1  UNL1        0.2210
     10 C          66.2797   92.5127   13.5891 C.3     1  UNL1        0.0983
     11 C          67.6482   91.8986   13.5968 C.3     1  UNL1        0.0209
     12 C          68.3478   92.3410   14.8478 C.3     1  UNL1        0.0172
     13 C          68.7801   92.9378   16.1542 C.3     1  UNL1        0.0171
     14 C          67.4116   93.2285   15.6132 C.3     1  UNL1        0.0541
     15 N          66.1335   93.3347   14.8353 N.3     1  UNL1       -0.2966
     16 H          65.9581   94.3089   14.5889 H       1  UNL1        0.1233
@<TRIPOS>BOND
     1     2     3    1
     2     3     4   ar
     3     4     5   ar
     4     5     6   ar
     5     6     1    1
     6     1     9    1
     7    10     9    1
     8    10    11    1
     9    12    11    1
    10    12    13    1
    11    14    13    1
    12    14    15    1
    13     6     7   ar
    14     7     8   ar
    15     8     3   ar
    16    15    10    1
    17    14    12    1
    18    15    16    1
@<TRIPOS>MOLECULE
*****
 16 18 0 0 0
SMALL
GASTEIGER

@<TRIPOS>ATOM
      1 O          60.1303   87.6887   10.5817 O.3     1  UNL1       -0.4724
      2 CL         62.1699   84.3837    6.0082 Cl      1  UNL1       -0.0613
      3 C          61.6600   85.2099    7.1515 C.ar    1  UNL1        0.1386
      4 C          62.5715   85.5571    8.2911 C.ar    1  UNL1        0.0339
      5 C          62.0616   86.3833    9.4345 C.ar    1  UNL1        0.0410
      6 C          60.6402   86.8624    9.4383 C.ar    1  UNL1        0.1578
      7 C          59.7287   86.5153    8.2987 C.ar    1  UNL1        0.1366
      8 N          60.2386   85.6890    7.1554 N.ar    1  UNL1       -0.2293
      9 C          60.2492   89.1833   10.5386 C.3     1  UNL1        0.2210
     10 C          61.4712   89.8547   11.0917 C.3     1  UNL1        0.0983
     11 C          62.5165   90.5780   10.2954 C.3     1  UNL1        0.0209
     12 C          63.5538   91.0911   11.2498 C.3     1  UNL1        0.0172
     13 C          64.4099   91.4694   12.4220 C.3     1  UNL1        0.0171
     14 C          63.1495   90.6848   12.6360 C.3     1  UNL1        0.0541
     15 N          61.8624   89.9207   12.5384 N.3     1  UNL1       -0.2966
     16 H          61.1356   90.3973   13.0721 H       1  UNL1        0.1233
@<TRIPOS>BOND
     1     2     3    1
     2     3     4   ar
     3     4     5   ar
     4     5     6   ar
     5     6     1    1
     6     1     9    1
     7    10     9    1
     8    10    11    1
     9    12    11    1
    10    12    13    1
    11    14    13    1
    12    14    15    1
    13     6     7   ar
    14     7     8   ar
    15     8     3   ar
    16    15    10    1
    17    14    12    1
    18    15    16    1
@<TRIPOS>MOLECULE
*****
 16 18 0 0 0
SMALL
GASTEIGER

@<TRIPOS>ATOM
      1 O          64.5537   92.0409   13.1911 O.3     1  UNL1       -0.4724
      2 CL         61.7906   87.7715   10.0071 Cl      1  UNL1       -0.0613
      3 C          62.4814   88.8389   10.8031 C.ar    1  UNL1        0.1386
      4 C          62.7253   90.1883   10.1953 C.ar    1  UNL1        0.0339
      5 C          63.4160   91.2557   10.9913 C.ar    1  UNL1        0.0410
      6 C          63.8629   90.9736   12.3951 C.ar    1  UNL1        0.1578
      7 C          63.6190   89.6241   13.0029 C.ar    1  UNL1        0.1366
      8 N          62.9282   88.5568   12.2069 N.ar    1  UNL1       -0.2293
      9 C          66.0162   92.3022   12.9848 C.3     1  UNL1        0.2210
     10 C          66.4779   93.0786   11.7874 C.3     1  UNL1        0.0983
     11 C          67.0182   92.4975   10.5144 C.3     1  UNL1        0.0209
     12 C          67.3545   93.6323    9.5929 C.3     1  UNL1        0.0172
     13 C          67.5881   94.9459    8.9075 C.3     1  UNL1        0.0171
     14 C          67.0221   94.9147   10.2963 C.3     1  UNL1        0.0541
     15 N          66.4803   94.5726   11.6526 N.3     1  UNL1       -0.2966
     16 H          65.5296   94.9302   11.7458 H       1  UNL1        0.1233
@<TRIPOS>BOND
     1     2     3    1
     2     3     4   ar
     3     4     5   ar
     4     5     6   ar
     5     6     1    1
     6     1     9    1
     7    10     9    1
     8    10    11    1
     9    12    11    1
    10    12    13    1
    11    14    13    1
    12    14    15    1
    13     6     7   ar
    14     7     8   ar
    15     8     3   ar
    16    15    10    1
    17    14    12    1
    18    15    16    1
@<TRIPOS>MOLECULE
*****
 16 18 0 0 0
SMALL
GASTEIGER

@<TRIPOS>ATOM
      1 O          61.7753   86.0026   12.1651 O.3     1  UNL1       -0.4724
      2 CL         59.3903   88.5741    7.2969 Cl      1  UNL1       -0.0613
      3 C          59.9865   87.9312    8.5139 C.ar    1  UNL1        0.1386
      4 C          60.6415   86.5861    8.4069 C.ar    1  UNL1        0.0339
      5 C          61.2378   85.9432    9.6239 C.ar    1  UNL1        0.0410
      6 C          61.1791   86.6455   10.9480 C.ar    1  UNL1        0.1578
      7 C          60.5241   87.9906   11.0551 C.ar    1  UNL1        0.1366
      8 N          59.9278   88.6335    9.8380 N.ar    1  UNL1       -0.2293
      9 C          62.9124   85.0350   12.0212 C.3     1  UNL1        0.2210
     10 C          62.7538   83.6172   12.4847 C.3     1  UNL1        0.0983
     11 C          62.8678   82.3914   11.6277 C.3     1  UNL1        0.0209
     12 C          62.6379   81.1929   12.4999 C.3     1  UNL1        0.0172
     13 C          62.3726   80.2077   13.5993 C.3     1  UNL1        0.0171
     14 C          62.3819   81.6780   13.8960 C.3     1  UNL1        0.0541
     15 N          62.4535   83.1763   13.8867 N.3     1  UNL1       -0.2966
     16 H          63.1930   83.4914   14.5146 H       1  UNL1        0.1233
@<TRIPOS>BOND
     1     2     3    1
     2     3     4   ar
     3     4     5   ar
     4     5     6   ar
     5     6     1    1
     6     1     9    1
     7    10     9    1
     8    10    11    1
     9    12    11    1
    10    12    13    1
    11    14    13    1
    12    14    15    1
    13     6     7   ar
    14     7     8   ar
    15     8     3   ar
    16    15    10    1
    17    14    12    1
    18    15    16    1
@<TRIPOS>MOLECULE
*****
 16 18 0 0 0
SMALL
GASTEIGER

@<TRIPOS>ATOM
      1 O          62.7930   85.5554   12.7727 O.3     1  UNL1       -0.4724
      2 CL         62.4239   79.6189   13.5616 Cl      1  UNL1       -0.0613
      3 C          62.5162   81.1030   13.3644 C.ar    1  UNL1        0.1386
      4 C          62.7274   81.6653   11.9899 C.ar    1  UNL1        0.0339
      5 C          62.8196   83.1494   11.7927 C.ar    1  UNL1        0.0410
      6 C          62.7007   84.0713   12.9700 C.ar    1  UNL1        0.1578
      7 C          62.4895   83.5090   14.3444 C.ar    1  UNL1        0.1366
      8 N          62.3972   82.0249   14.5417 N.ar    1  UNL1       -0.2293
      9 C          62.2007   86.1875   11.5482 C.3     1  UNL1        0.2210
     10 C          62.4343   87.6424   11.2675 C.3     1  UNL1        0.0983
     11 C          62.1319   88.3518    9.9809 C.3     1  UNL1        0.0209
     12 C          62.5220   89.7911   10.1424 C.3     1  UNL1        0.0172
     13 C          62.9960   91.1412   10.5926 C.3     1  UNL1        0.0171
     14 C          63.0654   89.9713   11.5288 C.3     1  UNL1        0.0541
     15 N          63.0112   88.6434   12.2243 N.3     1  UNL1       -0.2966
     16 H          62.4205   88.7105   13.0531 H       1  UNL1        0.1233
@<TRIPOS>BOND
     1     2     3    1
     2     3     4   ar
     3     4     5   ar
     4     5     6   ar
     5     6     1    1
     6     1     9    1
     7    10     9    1
     8    10    11    1
     9    12    11    1
    10    12    13    1
    11    14    13    1
    12    14    15    1
    13     6     7   ar
    14     7     8   ar
    15     8     3   ar
    16    15    10    1
    17    14    12    1
    18    15    16    1
@<TRIPOS>MOLECULE
*****
 16 18 0 0 0
SMALL
GASTEIGER

@<TRIPOS>ATOM
      1 O          64.1989   85.0931   16.1847 O.3     1  UNL1       -0.4724
      2 CL         62.7749   81.5402   11.5643 Cl      1  UNL1       -0.0613
      3 C          63.1309   82.4284   12.7194 C.ar    1  UNL1        0.1386
      4 C          64.3101   83.3502   12.6211 C.ar    1  UNL1        0.0339
      5 C          64.6661   84.2384   13.7762 C.ar    1  UNL1        0.0410
      6 C          63.8429   84.2049   15.0296 C.ar    1  UNL1        0.1578
      7 C          62.6637   83.2831   15.1279 C.ar    1  UNL1        0.1366
      8 N          62.3077   82.3949   13.9728 N.ar    1  UNL1       -0.2293
      9 C          63.3256   86.2634   16.5279 C.3     1  UNL1        0.2210
     10 C          63.5884   87.6031   15.9065 C.3     1  UNL1        0.0983
     11 C          64.3902   87.8568   14.6644 C.3     1  UNL1        0.0209
     12 C          64.3928   89.3348   14.4082 C.3     1  UNL1        0.0172
     13 C          64.2203   90.8248   14.4119 C.3     1  UNL1        0.0171
     14 C          63.5927   89.9945   15.4920 C.3     1  UNL1        0.0541
     15 N          63.0954   88.9243   16.4180 N.3     1  UNL1       -0.2966
     16 H          62.0756   88.9294   16.4371 H       1  UNL1        0.1233
@<TRIPOS>BOND
     1     2     3    1
     2     3     4   ar
     3     4     5   ar
     4     5     6   ar
     5     6     1    1
     6     1     9    1
     7    10     9    1
     8    10    11    1
     9    12    11    1
    10    12    13    1
    11    14    13    1
    12    14    15    1
    13     6     7   ar
    14     7     8   ar
    15     8     3   ar
    16    15    10    1
    17    14    12    1
    18    15    16    1
@<TRIPOS>MOLECULE
*****
 16 18 0 0 0
SMALL
GASTEIGER

@<TRIPOS>ATOM
      1 O          62.5868   90.8651   10.4427 O.3     1  UNL1       -0.4724
      2 CL         66.5971   91.4838   14.8625 Cl      1  UNL1       -0.0613
      3 C          65.5946   91.3291   13.7576 C.ar    1  UNL1        0.1386
      4 C          64.5092   90.2998   13.8684 C.ar    1  UNL1        0.0339
      5 C          63.5066   90.1451   12.7634 C.ar    1  UNL1        0.0410
      6 C          63.5894   91.0198   11.5477 C.ar    1  UNL1        0.1578
      7 C          64.6748   92.0491   11.4369 C.ar    1  UNL1        0.1366
      8 N          65.6774   92.2038   12.5419 N.ar    1  UNL1       -0.2293
      9 C          61.2205   90.3224   10.7403 C.3     1  UNL1        0.2210
     10 C          60.6080   89.2951    9.8351 C.3     1  UNL1        0.0983
     11 C          60.3189   87.8668   10.1906 C.3     1  UNL1        0.0209
     12 C          59.7093   87.2046    8.9907 C.3     1  UNL1        0.0172
     13 C          59.1351   86.8244    7.6581 C.3     1  UNL1        0.0171
     14 C          59.6217   88.2236    7.8935 C.3     1  UNL1        0.0541
     15 N          60.1771   89.5156    8.4153 N.3     1  UNL1       -0.2966
     16 H          59.4600   90.2401    8.3797 H       1  UNL1        0.1233
@<TRIPOS>BOND
     1     2     3    1
     2     3     4   ar
     3     4     5   ar
     4     5     6   ar
     5     6     1    1
     6     1     9    1
     7    10     9    1
     8    10    11    1
     9    12    11    1
    10    12    13    1
    11    14    13    1
    12    14    15    1
    13     6     7   ar
    14     7     8   ar
    15     8     3   ar
    16    15    10    1
    17    14    12    1
    18    15    16    1
@<TRIPOS>MOLECULE
*****
 16 18 0 0 0
SMALL
GASTEIGER

@<TRIPOS>ATOM
      1 O          65.2468   93.0151   11.6467 O.3     1  UNL1       -0.4724
      2 CL         67.7947   96.8453    7.7947 Cl      1  UNL1       -0.0613
      3 C          67.1577   95.8878    8.7577 C.ar    1  UNL1        0.1386
      4 C          67.6075   94.4575    8.8013 C.ar    1  UNL1        0.0339
      5 C          66.9706   93.4999    9.7643 C.ar    1  UNL1        0.0410
      6 C          65.8838   93.9727   10.6837 C.ar    1  UNL1        0.1578
      7 C          65.4340   95.4029   10.6401 C.ar    1  UNL1        0.1366
      8 N          66.0710   96.3605    9.6771 N.ar    1  UNL1       -0.2293
      9 C          66.0905   92.0110   12.3746 C.3     1  UNL1        0.2210
     10 C          66.9854   92.4540   13.4939 C.3     1  UNL1        0.0983
     11 C          66.6435   93.4635   14.5494 C.3     1  UNL1        0.0209
     12 C          67.8261   93.5987   15.4621 C.3     1  UNL1        0.0172
     13 C          69.1376   93.5193   16.1858 C.3     1  UNL1        0.0171
     14 C          68.8990   92.6727   14.9708 C.3     1  UNL1        0.0541
     15 N          68.3795   91.9652   13.7543 N.3     1  UNL1       -0.2966
     16 H          68.3684   90.9584   13.9178 H       1  UNL1        0.1233
@<TRIPOS>BOND
     1     2     3    1
     2     3     4   ar
     3     4     5   ar
     4     5     6   ar
     5     6     1    1
     6     1     9    1
     7    10     9    1
     8    10    11    1
     9    12    11    1
    10    12    13    1
    11    14    13    1
    12    14    15    1
    13     6     7   ar
    14     7     8   ar
    15     8     3   ar
    16    15    10    1
    17    14    12    1
    18    15    16    1
