@<TRIPOS>MOLECULE
*****
 38 41 0 0 0
SMALL
GASTEIGER

@<TRIPOS>ATOM
      1 C          65.0004   90.8034   14.9198 C.ar    1  UNL1        0.1353
      2 N          63.8005   90.6550   15.8077 N.ar    1  UNL1       -0.2279
      3 C          63.2335   89.2827   15.5953 C.ar    1  UNL1        0.1171
      4 C          64.0829   88.5829   14.5761 C.ar    1  UNL1        0.0769
      5 N          65.1749   89.5227   14.1586 N.ar    1  UNL1       -0.3394
      6 H          65.8819   89.3324   13.5005 H       1  UNL1        0.1671
      7 C          65.7143   92.4144   12.1731 C.2     1  UNL1        0.2439
      8 O          64.8138   91.2321   11.9704 O.2     1  UNL1       -0.2731
      9 N          66.2007   92.7594   13.5495 N.am    1  UNL1       -0.2730
     10 C          67.1007   93.9056   13.9050 C.3     1  UNL1        0.0939
     11 C          67.3287   93.8734   15.3872 C.3     1  UNL1        0.0237
     12 C          66.5697   92.7074   15.9478 C.3     1  UNL1        0.0293
     13 C          65.8726   92.0190   14.8120 C.3     1  UNL1        0.1319
     14 C          66.1285   93.2518   10.9995 C.3     1  UNL1        0.1512
     15 C          65.4838   95.7663   10.8910 C.2     1  UNL1        0.4021
     16 O          66.6430   96.1019   11.7818 O.2     1  UNL1       -0.2264
     17 N          65.2266   94.3412   10.4998 N.am    1  UNL1       -0.2640
     18 H          64.4658   94.1209    9.9151 H       1  UNL1        0.1532
     19 C          64.1085   96.8434    8.9679 C.3     1  UNL1        0.2573
     20 O          64.5819   96.8556   10.3912 O.3     1  UNL1       -0.4306
     21 C          67.4446   92.9997   10.3257 C.3     1  UNL1        0.0270
     22 C          67.8209   93.7781    9.0999 C.3     1  UNL1        0.0022
     23 C          68.3847   91.9691   10.8774 C.3     1  UNL1        0.0022
     24 C          63.8765   87.1880   14.0642 C.ar    1  UNL1        0.0172
     25 C          63.2333   86.9673   12.7272 C.ar    1  UNL1        0.0015
     26 C          63.0270   85.5725   12.2154 C.ar    1  UNL1        0.0000
     27 C          63.4639   84.3985   13.0405 C.ar    1  UNL1        0.0000
     28 C          64.1071   84.6193   14.3774 C.ar    1  UNL1        0.0000
     29 C          64.3134   86.0140   14.8893 C.ar    1  UNL1        0.0015
     30 C          63.2575   83.0037   12.5286 C.ar    1  UNL1       -0.0000
     31 C          62.9175   81.8973   13.4826 C.ar    1  UNL1       -0.0002
     32 C          62.7112   80.5025   12.9707 C.ar    1  UNL1       -0.0019
     33 C          62.8448   80.2142   11.5047 C.ar    1  UNL1        0.0070
     34 C          63.1848   81.3207   10.5507 C.ar    1  UNL1       -0.0019
     35 C          63.3911   82.7154   11.0626 C.ar    1  UNL1       -0.0002
     36 C          62.6385   78.8194   10.9928 C.3     1  UNL1        0.1636
     37 O          62.8794   78.5085    9.5453 O.3     1  UNL1       -0.3772
     38 H          62.2290   78.9792    9.0009 H       1  UNL1        0.2109
@<TRIPOS>BOND
     1    19    20    1
     2    20    15    1
     3    15    16    2
     4    15    17   am
     5    14    17    1
     6    14     7    1
     7     7     8    2
     8     7     9   am
     9     9    10    1
    10    10    11    1
    11    11    12    1
    12    12    13    1
    13    13     1    1
    14     1     2   ar
    15     2     3   ar
    16     3     4   ar
    17     4    24    1
    18    24    25   ar
    19    25    26   ar
    20    26    27   ar
    21    27    30    1
    22    30    31   ar
    23    31    32   ar
    24    32    33   ar
    25    33    36    1
    26    36    37    1
    27    33    34   ar
    28    34    35   ar
    29    27    28   ar
    30    28    29   ar
    31     4     5   ar
    32    14    21    1
    33    21    22    1
    34    21    23    1
    35    13     9    1
    36     5     1   ar
    37    29    24   ar
    38    35    30   ar
    39    17    18    1
    40    37    38    1
    41     5     6    1
@<TRIPOS>MOLECULE
*****
 38 41 0 0 0
SMALL
GASTEIGER

@<TRIPOS>ATOM
      1 C          65.0746   91.2557   14.7829 C.ar    1  UNL1        0.1353
      2 N          63.6515   91.2932   15.2556 N.ar    1  UNL1       -0.2279
      3 C          63.0237   89.9675   14.9417 C.ar    1  UNL1        0.1171
      4 C          64.0588   89.1107   14.2750 C.ar    1  UNL1        0.0769
      5 N          65.3263   89.9069   14.1769 N.ar    1  UNL1       -0.3394
      6 H          66.1745   89.5983   13.7837 H       1  UNL1        0.1671
      7 C          65.9393   93.3053   12.3953 C.2     1  UNL1        0.2439
      8 O          64.9163   92.2878   11.9851 O.2     1  UNL1       -0.2731
      9 N          66.4684   93.3133   13.7988 N.am    1  UNL1       -0.2730
     10 C          67.4879   94.2648   14.3513 C.3     1  UNL1        0.0939
     11 C          67.7205   93.9108   15.7902 C.3     1  UNL1        0.0237
     12 C          66.8448   92.7405   16.1271 C.3     1  UNL1        0.0293
     13 C          66.0710   92.3712   14.8963 C.3     1  UNL1        0.1319
     14 C          66.4332   94.3148   11.4018 C.3     1  UNL1        0.1512
     15 C          68.3688   92.7608   10.6347 C.2     1  UNL1        0.4021
     16 O          68.2648   91.9963   11.9211 O.2     1  UNL1       -0.2264
     17 N          67.4530   93.9201   10.3751 N.am    1  UNL1       -0.2640
     18 H          67.5213   94.4219    9.5308 H       1  UNL1        0.1532
     19 C          68.9576   92.0460    8.2073 C.3     1  UNL1        0.2573
     20 O          69.3886   92.3662    9.6079 O.3     1  UNL1       -0.4306
     21 C          65.9073   95.7192   11.4352 C.3     1  UNL1        0.0270
     22 C          65.0130   96.2115   10.3361 C.3     1  UNL1        0.0022
     23 C          66.2756   96.6315   12.5676 C.3     1  UNL1        0.0022
     24 C          63.8611   87.7046   13.7914 C.ar    1  UNL1        0.0172
     25 C          63.1359   87.4495   12.5034 C.ar    1  UNL1        0.0015
     26 C          62.9383   86.0434   12.0198 C.ar    1  UNL1        0.0000
     27 C          63.4659   84.8925   12.8242 C.ar    1  UNL1        0.0000
     28 C          64.1911   85.1476   14.1122 C.ar    1  UNL1        0.0000
     29 C          64.3887   86.5537   14.5958 C.ar    1  UNL1        0.0015
     30 C          63.2682   83.4864   12.3406 C.ar    1  UNL1       -0.0000
     31 C          62.6129   82.4723   13.2306 C.ar    1  UNL1       -0.0002
     32 C          62.4153   81.0662   12.7469 C.ar    1  UNL1       -0.0019
     33 C          62.8730   80.6742   11.3733 C.ar    1  UNL1        0.0070
     34 C          63.5283   81.6884   10.4833 C.ar    1  UNL1       -0.0019
     35 C          63.7259   83.0945   10.9669 C.ar    1  UNL1       -0.0002
     36 C          62.6753   79.2682   10.8896 C.3     1  UNL1        0.1636
     37 O          62.7703   78.9586    9.4250 O.3     1  UNL1       -0.3772
     38 H          62.0436   79.3959    8.9543 H       1  UNL1        0.2109
@<TRIPOS>BOND
     1    19    20    1
     2    20    15    1
     3    15    16    2
     4    15    17   am
     5    14    17    1
     6    14     7    1
     7     7     8    2
     8     7     9   am
     9     9    10    1
    10    10    11    1
    11    11    12    1
    12    12    13    1
    13    13     1    1
    14     1     2   ar
    15     2     3   ar
    16     3     4   ar
    17     4    24    1
    18    24    25   ar
    19    25    26   ar
    20    26    27   ar
    21    27    30    1
    22    30    31   ar
    23    31    32   ar
    24    32    33   ar
    25    33    36    1
    26    36    37    1
    27    33    34   ar
    28    34    35   ar
    29    27    28   ar
    30    28    29   ar
    31     4     5   ar
    32    14    21    1
    33    21    22    1
    34    21    23    1
    35    13     9    1
    36     5     1   ar
    37    29    24   ar
    38    35    30   ar
    39    17    18    1
    40    37    38    1
    41     5     6    1
@<TRIPOS>MOLECULE
*****
 38 41 0 0 0
SMALL
GASTEIGER

@<TRIPOS>ATOM
      1 C          63.4081   87.2895   15.5777 C.ar    1  UNL1        0.1353
      2 N          63.1022   88.3344   16.6096 N.ar    1  UNL1       -0.2279
      3 C          63.5287   89.6646   16.0630 C.ar    1  UNL1        0.1171
      4 C          64.0982   89.4419   14.6933 C.ar    1  UNL1        0.0769
      5 N          64.0236   87.9740   14.3934 N.ar    1  UNL1       -0.3394
      6 H          64.3257   87.5367   13.5647 H       1  UNL1        0.1671
      7 C          62.9385   85.2007   13.1149 C.2     1  UNL1        0.2439
      8 O          63.1804   86.6149   12.6775 O.2     1  UNL1       -0.2731
      9 N          62.9288   84.8585   14.5753 N.am    1  UNL1       -0.2730
     10 C          62.7017   83.4959   15.1601 C.3     1  UNL1        0.0939
     11 C          62.7771   83.6141   16.6535 C.3     1  UNL1        0.0237
     12 C          63.0509   85.0495   16.9917 C.3     1  UNL1        0.0293
     13 C          63.1447   85.8186   15.7073 C.3     1  UNL1        0.1319
     14 C          62.7061   84.1286   12.0918 C.3     1  UNL1        0.1512
     15 C          63.3634   81.6935   12.7153 C.2     1  UNL1        0.4021
     16 O          64.8063   82.0193   12.4667 O.2     1  UNL1       -0.2264
     17 N          62.3133   82.7482   12.5279 N.am    1  UNL1       -0.2640
     18 H          61.3663   82.5343   12.6910 H       1  UNL1        0.1532
     19 C          61.6163   80.0728   13.7500 C.3     1  UNL1        0.2573
     20 O          62.9705   80.3132   13.1513 O.3     1  UNL1       -0.4306
     21 C          62.8667   84.4369   10.6327 C.3     1  UNL1        0.0270
     22 C          63.8156   83.6312    9.7958 C.3     1  UNL1        0.0022
     23 C          62.0782   85.5510   10.0103 C.3     1  UNL1        0.0022
     24 C          64.6460   90.5010   13.7833 C.ar    1  UNL1        0.0172
     25 C          65.8779   91.2621   14.1745 C.ar    1  UNL1        0.0015
     26 C          66.4257   92.3212   13.2645 C.ar    1  UNL1        0.0000
     27 C          65.7416   92.6193   11.9633 C.ar    1  UNL1        0.0000
     28 C          64.5096   91.8582   11.5721 C.ar    1  UNL1        0.0000
     29 C          63.9619   90.7991   12.4821 C.ar    1  UNL1        0.0015
     30 C          66.2894   93.6784   11.0532 C.ar    1  UNL1       -0.0000
     31 C          65.9936   95.1242   11.3217 C.ar    1  UNL1       -0.0002
     32 C          66.5415   96.1834   10.4117 C.ar    1  UNL1       -0.0019
     33 C          67.3851   95.7967    9.2332 C.ar    1  UNL1        0.0070
     34 C          67.6808   94.3508    8.9648 C.ar    1  UNL1       -0.0019
     35 C          67.1330   93.2917    9.8748 C.ar    1  UNL1       -0.0002
     36 C          67.9329   96.8558    8.3232 C.3     1  UNL1        0.1636
     37 O          67.5694   96.8556    6.8679 O.3     1  UNL1       -0.3772
     38 H          67.9410   96.0674    6.4419 H       1  UNL1        0.2109
@<TRIPOS>BOND
     1    19    20    1
     2    20    15    1
     3    15    16    2
     4    15    17   am
     5    14    17    1
     6    14     7    1
     7     7     8    2
     8     7     9   am
     9     9    10    1
    10    10    11    1
    11    11    12    1
    12    12    13    1
    13    13     1    1
    14     1     2   ar
    15     2     3   ar
    16     3     4   ar
    17     4    24    1
    18    24    25   ar
    19    25    26   ar
    20    26    27   ar
    21    27    30    1
    22    30    31   ar
    23    31    32   ar
    24    32    33   ar
    25    33    36    1
    26    36    37    1
    27    33    34   ar
    28    34    35   ar
    29    27    28   ar
    30    28    29   ar
    31     4     5   ar
    32    14    21    1
    33    21    22    1
    34    21    23    1
    35    13     9    1
    36     5     1   ar
    37    29    24   ar
    38    35    30   ar
    39    17    18    1
    40    37    38    1
    41     5     6    1
@<TRIPOS>MOLECULE
*****
 38 41 0 0 0
SMALL
GASTEIGER

@<TRIPOS>ATOM
      1 C          63.6393   89.6688   14.0307 C.ar    1  UNL1        0.1353
      2 N          63.0738   90.0026   12.6820 N.ar    1  UNL1       -0.2279
      3 C          62.8258   88.7159   11.9520 C.ar    1  UNL1        0.1171
      4 C          63.2380   87.5869   12.8494 C.ar    1  UNL1        0.0769
      5 N          63.7408   88.1758   14.1341 N.ar    1  UNL1       -0.3394
      6 H          64.0781   87.6710   14.9091 H       1  UNL1        0.1671
      7 C          65.8777   92.0231   13.7212 C.2     1  UNL1        0.2439
      8 O          65.6964   91.1879   12.4885 O.2     1  UNL1       -0.2731
      9 N          65.0628   91.7370   14.9476 N.am    1  UNL1       -0.2730
     10 C          65.1338   92.4828   16.2472 C.3     1  UNL1        0.0939
     11 C          64.1488   91.8615   17.1925 C.3     1  UNL1        0.0237
     12 C          63.4691   90.7317   16.4773 C.3     1  UNL1        0.0293
     13 C          64.0340   90.6548   15.0899 C.3     1  UNL1        0.1319
     14 C          66.8738   93.1447   13.7274 C.3     1  UNL1        0.1512
     15 C          66.8123   94.4904   11.5059 C.2     1  UNL1        0.4021
     16 O          67.3417   93.2965   10.7681 O.2     1  UNL1       -0.2264
     17 N          66.5783   94.4144   12.9856 N.am    1  UNL1       -0.2640
     18 H          66.2308   95.1980   13.4699 H       1  UNL1        0.1532
     19 C          67.2427   96.0699    9.4885 C.3     1  UNL1        0.2573
     20 O          66.5168   95.7602   10.7642 O.3     1  UNL1       -0.4306
     21 C          68.1654   92.9963   14.4756 C.3     1  UNL1        0.0270
     22 C          68.3967   93.7779   15.7349 C.3     1  UNL1        0.0022
     23 C          69.2257   92.0665   13.9646 C.3     1  UNL1        0.0022
     24 C          63.1610   86.1255   12.5199 C.ar    1  UNL1        0.0172
     25 C          62.5585   85.6804   11.2204 C.ar    1  UNL1        0.0015
     26 C          62.4815   84.2190   10.8911 C.ar    1  UNL1        0.0000
     27 C          63.0070   83.2029   11.8612 C.ar    1  UNL1        0.0000
     28 C          63.6095   83.6480   13.1607 C.ar    1  UNL1        0.0000
     29 C          63.6865   85.1093   13.4901 C.ar    1  UNL1        0.0015
     30 C          62.9300   81.7414   11.5318 C.ar    1  UNL1       -0.0000
     31 C          62.6798   80.7396   12.6197 C.ar    1  UNL1       -0.0002
     32 C          62.6028   79.2782   12.2903 C.ar    1  UNL1       -0.0019
     33 C          62.7760   78.8187   10.8729 C.ar    1  UNL1        0.0070
     34 C          63.0262   79.8207    9.7849 C.ar    1  UNL1       -0.0019
     35 C          63.1032   81.2820   10.1144 C.ar    1  UNL1       -0.0002
     36 C          62.6990   77.3574   10.5434 C.3     1  UNL1        0.1636
     37 O          63.9124   76.6389   10.0322 O.3     1  UNL1       -0.3772
     38 H          64.1523   76.9895    9.1602 H       1  UNL1        0.2109
@<TRIPOS>BOND
     1    19    20    1
     2    20    15    1
     3    15    16    2
     4    15    17   am
     5    14    17    1
     6    14     7    1
     7     7     8    2
     8     7     9   am
     9     9    10    1
    10    10    11    1
    11    11    12    1
    12    12    13    1
    13    13     1    1
    14     1     2   ar
    15     2     3   ar
    16     3     4   ar
    17     4    24    1
    18    24    25   ar
    19    25    26   ar
    20    26    27   ar
    21    27    30    1
    22    30    31   ar
    23    31    32   ar
    24    32    33   ar
    25    33    36    1
    26    36    37    1
    27    33    34   ar
    28    34    35   ar
    29    27    28   ar
    30    28    29   ar
    31     4     5   ar
    32    14    21    1
    33    21    22    1
    34    21    23    1
    35    13     9    1
    36     5     1   ar
    37    29    24   ar
    38    35    30   ar
    39    17    18    1
    40    37    38    1
    41     5     6    1
@<TRIPOS>MOLECULE
*****
 38 41 0 0 0
SMALL
GASTEIGER

@<TRIPOS>ATOM
      1 C          60.4641   88.0057    8.9020 C.ar    1  UNL1        0.1353
      2 N          59.0771   87.5747    8.5270 N.ar    1  UNL1       -0.2279
      3 C          58.6406   88.3920    7.3475 C.ar    1  UNL1        0.1171
      4 C          59.7578   89.3282    6.9933 C.ar    1  UNL1        0.0769
      5 N          60.8848   89.0894    7.9541 N.ar    1  UNL1       -0.3394
      6 H          61.7488   89.5612    7.9612 H       1  UNL1        0.1671
      7 C          61.9858   89.7453   11.2057 C.2     1  UNL1        0.2439
      8 O          61.2374   90.5778   10.2073 O.2     1  UNL1       -0.2731
      9 N          61.9855   88.2501   11.0861 N.am    1  UNL1       -0.2730
     10 C          62.6845   87.2920   12.0044 C.3     1  UNL1        0.0939
     11 C          62.4171   85.9002   11.5130 C.3     1  UNL1        0.0237
     12 C          61.5528   85.9982   10.2910 C.3     1  UNL1        0.0293
     13 C          61.2860   87.4505   10.0272 C.3     1  UNL1        0.1319
     14 C          62.7346   90.4080   12.3239 C.3     1  UNL1        0.1512
     15 C          63.0965   89.4791   14.7231 C.2     1  UNL1        0.4021
     16 O          64.3975   88.8704   14.2911 O.2     1  UNL1       -0.2264
     17 N          62.2650   90.2480   13.7394 N.am    1  UNL1       -0.2640
     18 H          61.4110   90.6475   14.0229 H       1  UNL1        0.1532
     19 C          63.0464   88.1207   16.9371 C.3     1  UNL1        0.2573
     20 O          62.6268   89.3191   16.1386 O.3     1  UNL1       -0.4306
     21 C          63.9529   91.2308   12.0264 C.3     1  UNL1        0.0270
     22 C          64.8694   91.6436   13.1398 C.3     1  UNL1        0.0022
     23 C          64.2550   91.6409   10.6154 C.3     1  UNL1        0.0022
     24 C          59.7495   90.3277    5.8748 C.ar    1  UNL1        0.0172
     25 C          58.4697   91.0053    5.4839 C.ar    1  UNL1        0.0015
     26 C          58.4615   92.0047    4.3655 C.ar    1  UNL1        0.0000
     27 C          59.7331   92.3266    3.6379 C.ar    1  UNL1        0.0000
     28 C          61.0129   91.6490    4.0288 C.ar    1  UNL1        0.0000
     29 C          61.0211   90.6496    5.1472 C.ar    1  UNL1        0.0015
     30 C          59.7248   93.3261    2.5194 C.ar    1  UNL1       -0.0000
     31 C          60.2671   94.7066    2.7432 C.ar    1  UNL1       -0.0002
     32 C          60.2589   95.7061    1.6246 C.ar    1  UNL1       -0.0019
     33 C          59.7083   95.3250    0.2824 C.ar    1  UNL1        0.0070
     34 C          59.1659   93.9444    0.0587 C.ar    1  UNL1       -0.0019
     35 C          59.1742   92.9450    1.1771 C.ar    1  UNL1       -0.0002
     36 C          59.7000   96.3244   -0.8361 C.3     1  UNL1        0.1636
     37 O          60.6697   96.1867   -1.9721 O.3     1  UNL1       -0.3772
     38 H          61.5730   96.3179   -1.6439 H       1  UNL1        0.2109
@<TRIPOS>BOND
     1    19    20    1
     2    20    15    1
     3    15    16    2
     4    15    17   am
     5    14    17    1
     6    14     7    1
     7     7     8    2
     8     7     9   am
     9     9    10    1
    10    10    11    1
    11    11    12    1
    12    12    13    1
    13    13     1    1
    14     1     2   ar
    15     2     3   ar
    16     3     4   ar
    17     4    24    1
    18    24    25   ar
    19    25    26   ar
    20    26    27   ar
    21    27    30    1
    22    30    31   ar
    23    31    32   ar
    24    32    33   ar
    25    33    36    1
    26    36    37    1
    27    33    34   ar
    28    34    35   ar
    29    27    28   ar
    30    28    29   ar
    31     4     5   ar
    32    14    21    1
    33    21    22    1
    34    21    23    1
    35    13     9    1
    36     5     1   ar
    37    29    24   ar
    38    35    30   ar
    39    17    18    1
    40    37    38    1
    41     5     6    1
