@<TRIPOS>MOLECULE
*****
 39 44 0 0 0
SMALL
GASTEIGER

@<TRIPOS>ATOM
      1 N          64.1589   92.3428   11.0796 N.3     1  UNL1       -0.2676
      2 C          64.7133   92.3557   12.4734 C.3     1  UNL1        0.0746
      3 C          64.6787   91.1084   13.3058 C.3     1  UNL1        0.0449
      4 C          64.0897   89.8482   12.7446 C.3     1  UNL1        0.1391
      5 C          63.5353   89.8353   11.3509 C.3     1  UNL1        0.0449
      6 C          63.5699   91.0826   10.5184 C.3     1  UNL1        0.0746
      7 C          63.5353   88.5204   12.3207 C.2     1  UNL1        0.2529
      8 O          62.9182   88.2068   10.9900 O.2     1  UNL1       -0.2724
      9 N          63.7064   87.5612   13.4613 N.am    1  UNL1       -0.1907
     10 C          64.3665   88.2963   14.5901 C.2     1  UNL1        0.3219
     11 O          64.7265   87.7193   15.9270 O.2     1  UNL1       -0.2512
     12 N          64.6034   89.7097   14.1471 N.am    1  UNL1       -0.2222
     13 C          65.2419   90.7942   14.9633 C.ar    1  UNL1        0.1453
     14 C          66.7014   91.0977   14.7968 C.ar    1  UNL1        0.0922
     15 C          67.3398   92.1822   15.6130 C.ar    1  UNL1        0.2259
     16 O          68.7993   92.4857   15.4464 O.3     1  UNL1       -0.4919
     17 N          66.5187   92.9634   16.5957 N.ar    1  UNL1       -0.1894
     18 C          65.0592   92.6599   16.7622 C.ar    1  UNL1        0.2027
     19 N          64.4208   91.5753   15.9460 N.ar    1  UNL1       -0.2084
     20 H          69.3122   91.9978   14.8326 H       1  UNL1        0.2938
     21 C          63.2904   86.1201   13.4714 C.ar    1  UNL1        0.0622
     22 C          63.2974   85.3465   14.7564 C.ar    1  UNL1        0.0155
     23 C          62.8814   83.9054   14.7664 C.ar    1  UNL1        0.0044
     24 C          62.4584   83.2379   13.4915 C.ar    1  UNL1        0.0373
     25 C          62.4514   84.0116   12.2065 C.ar    1  UNL1        0.0044
     26 C          62.8674   85.4527   12.1964 C.ar    1  UNL1        0.0155
     27 C          62.0424   81.7968   13.5016 C.ar    1  UNL1        0.1769
     28 C          62.7873   80.6596   12.8674 C.ar    1  UNL1        0.0642
     29 C          62.0137   79.3998   13.1215 C.ar    1  UNL1        0.1438
     30 N          60.7909   79.7583   13.9127 N.ar    1  UNL1       -0.0753
     31 O          60.8086   81.2397   14.1476 O.2     1  UNL1       -0.3533
     32 C          64.1935   93.5901   10.2471 C.3     1  UNL1        0.1183
     33 C          64.4497   96.5662    9.9685 C.3     1  UNL1        0.0323
     34 C          65.6375   95.6846    9.7196 C.ar    1  UNL1       -0.0069
     35 C          66.9534   96.2910    9.3315 C.ar    1  UNL1       -0.0015
     36 C          68.1412   95.4094    9.0826 C.ar    1  UNL1        0.0203
     37 C          68.0131   93.9214    9.2219 C.ar    1  UNL1        0.0985
     38 N          66.6972   93.3149    9.6101 N.ar    1  UNL1       -0.2471
     39 C          65.5094   94.1965    9.8590 C.ar    1  UNL1        0.0712
@<TRIPOS>BOND
     1    33    34    1
     2    34    35   ar
     3    35    36   ar
     4    36    37   ar
     5    37    38   ar
     6    38    39   ar
     7    39    32    1
     8    32     1    1
     9     1     2    1
    10     2     3    1
    11     3     4    1
    12     4     5    1
    13     5     6    1
    14     4     7    1
    15     7     8    2
    16     7     9   am
    17     9    21    1
    18    21    22   ar
    19    22    23   ar
    20    23    24   ar
    21    24    27    1
    22    27    28   ar
    23    28    29   ar
    24    29    30   ar
    25    30    31   ar
    26    24    25   ar
    27    25    26   ar
    28     9    10   am
    29    10    11    2
    30    10    12   am
    31    12    13    1
    32    13    14   ar
    33    14    15   ar
    34    15    16    1
    35    15    17   ar
    36    17    18   ar
    37    18    19   ar
    38    39    34   ar
    39     6     1    1
    40    26    21   ar
    41    19    13   ar
    42    12     4    1
    43    31    27   ar
    44    16    20    1
