@<TRIPOS>MOLECULE
*****
 40 45 0 0 0
SMALL
GASTEIGER

@<TRIPOS>ATOM
      1 C          64.3448   89.4418   14.6019 C.ar    1  UNL1        0.1669
      2 N          64.3602   88.1027   13.9263 N.ar    1  UNL1       -0.2221
      3 C          63.7429   87.1049   14.8609 C.ar    1  UNL1        0.1307
      4 C          63.4910   85.6318   14.7327 C.ar    1  UNL1        0.0777
      5 C          62.8420   84.8812   15.8577 C.ar    1  UNL1        0.0893
      6 CL         62.5901   83.4080   15.7295 Cl      1  UNL1       -0.0794
      7 C          62.4451   85.6037   17.1108 C.ar    1  UNL1        0.0863
      8 N          62.6971   87.0768   17.2390 N.ar    1  UNL1       -0.3354
      9 C          63.3459   87.8274   16.1141 C.ar    1  UNL1        0.1613
     10 N          63.7179   89.2717   15.9540 N.ar    1  UNL1       -0.2080
     11 H          62.4365   87.5510   18.0615 H       1  UNL1        0.1675
     12 C          64.3490   91.2198   12.7075 C.ar    1  UNL1        0.1413
     13 C          64.8691   92.5037   12.1321 C.ar    1  UNL1        0.0341
     14 C          65.9051   93.2935   12.8756 C.ar    1  UNL1       -0.0031
     15 C          66.4210   92.7995   14.1946 C.ar    1  UNL1       -0.0026
     16 C          65.9008   91.5155   14.7700 C.ar    1  UNL1        0.0058
     17 C          64.8649   90.7257   14.0265 C.ar    1  UNL1        0.0697
     18 C          62.8697   90.8707   10.6003 C.3     1  UNL1        0.2525
     19 O          63.3130   90.4300   11.9639 O.3     1  UNL1       -0.4713
     20 C          66.4252   94.5774   12.3001 C.3     1  UNL1        0.0994
     21 N          66.8153   94.6471   10.8535 N.3     1  UNL1       -0.2646
     22 C          66.4785   95.8638   10.0435 C.3     1  UNL1        0.1049
     23 C          66.8687   95.9334    8.5969 C.3     1  UNL1        0.1595
     24 O          67.5957   94.7863    7.9600 O.3     1  UNL1       -0.3508
     25 C          67.9326   93.5695    8.7700 C.3     1  UNL1        0.1595
     26 C          67.5424   93.4999   10.2167 C.3     1  UNL1        0.1049
     27 N          63.8879   84.9092   13.4795 N.pl3   1  UNL1       -0.3313
     28 H          64.6549   84.2921   13.4891 H       1  UNL1        0.1469
     29 C          63.1162   85.1269   12.2118 C.3     1  UNL1        0.0819
     30 C          62.9697   84.1432   11.0890 C.3     1  UNL1        0.0983
     31 C          62.1184   84.7747   10.0276 C.3     1  UNL1        0.0323
     32 C          61.3577   86.0142    9.6602 C.2     1  UNL1       -0.0304
     33 C          61.5042   86.9979   10.7831 C.2     1  UNL1       -0.0294
     34 C          62.3554   86.3664   11.8445 C.3     1  UNL1        0.0404
     35 C          62.7351   84.9924   11.3776 C.3     1  UNL1        0.0109
     36 C          63.5692   82.7692   11.0366 C.2     1  UNL1        0.2208
     37 N          62.8263   81.6040   11.6200 N.am    1  UNL1       -0.3288
     38 O          64.9117   82.5604   10.4008 O.2     1  UNL1       -0.2753
     39 H          61.9452   81.7410   12.0373 H       1  UNL1        0.1449
     40 H          63.2198   80.7022   11.5856 H       1  UNL1        0.1449
@<TRIPOS>BOND
     1    18    19    1
     2    19    12    1
     3    12    13   ar
     4    13    14   ar
     5    14    20    1
     6    20    21    1
     7    21    22    1
     8    22    23    1
     9    23    24    1
    10    24    25    1
    11    25    26    1
    12    14    15   ar
    13    15    16   ar
    14    16    17   ar
    15    17     1    1
    16     1     2   ar
    17     2     3   ar
    18     3     4   ar
    19     4    27    1
    20    29    27    1
    21    29    30    1
    22    30    36    1
    23    36    37   am
    24    36    38    2
    25    30    31    1
    26    31    32    1
    27    32    33    2
    28    34    33    1
    29    34    35    1
    30     4     5   ar
    31     5     6    1
    32     5     7   ar
    33     7     8   ar
    34     8     9   ar
    35     9    10   ar
    36    17    12   ar
    37    10     1   ar
    38    26    21    1
    39     9     3    1
    40    34    29    1
    41    35    31    1
    42    27    28    1
    43    37    39    1
    44    37    40    1
    45     8    11    1
@<TRIPOS>MOLECULE
*****
 40 45 0 0 0
SMALL
GASTEIGER

@<TRIPOS>ATOM
      1 C          64.3983   89.6555   14.6754 C.ar    1  UNL1        0.1669
      2 N          64.6766   88.2595   14.2024 N.ar    1  UNL1       -0.2221
      3 C          63.9657   87.3091   15.1197 C.ar    1  UNL1        0.1307
      4 C          63.8791   85.8118   15.1424 C.ar    1  UNL1        0.0777
      5 C          63.0748   85.1231   16.2050 C.ar    1  UNL1        0.0893
      6 CL         62.9882   83.6257   16.2277 Cl      1  UNL1       -0.0794
      7 C          62.3573   85.9317   17.2447 C.ar    1  UNL1        0.0863
      8 N          62.4439   87.4290   17.2220 N.ar    1  UNL1       -0.3354
      9 C          63.2481   88.1177   16.1595 C.ar    1  UNL1        0.1613
     10 N          63.5155   89.5679   15.8849 N.ar    1  UNL1       -0.2080
     11 H          61.9729   87.9597   17.9045 H       1  UNL1        0.1675
     12 C          64.4672   91.3061   12.6702 C.ar    1  UNL1        0.1413
     13 C          64.9815   92.5683   12.0437 C.ar    1  UNL1        0.0341
     14 C          65.9413   93.4419   12.7958 C.ar    1  UNL1       -0.0031
     15 C          66.3868   93.0534   14.1744 C.ar    1  UNL1       -0.0026
     16 C          65.8724   91.7912   14.8009 C.ar    1  UNL1        0.0058
     17 C          64.9126   90.9176   14.0488 C.ar    1  UNL1        0.0697
     18 C          62.8296   90.9514   10.6846 C.3     1  UNL1        0.2525
     19 O          63.5074   90.4326   11.9181 O.3     1  UNL1       -0.4713
     20 C          66.4556   94.7040   12.1692 C.3     1  UNL1        0.0994
     21 N          66.8281   94.7222   10.7164 N.3     1  UNL1       -0.2646
     22 C          67.5941   93.5767   10.1240 C.3     1  UNL1        0.1049
     23 C          67.9666   93.5950    8.6711 C.3     1  UNL1        0.1595
     24 O          67.5731   94.7588    7.8105 O.3     1  UNL1       -0.3508
     25 C          66.8070   95.9044    8.4028 C.3     1  UNL1        0.1595
     26 C          66.4346   95.8861    9.8558 C.3     1  UNL1        0.1049
     27 N          64.5966   85.0031   14.1026 N.pl3   1  UNL1       -0.3313
     28 H          65.5294   85.2160   13.8705 H       1  UNL1        0.1469
     29 C          63.8930   83.8700   13.4163 C.3     1  UNL1        0.0819
     30 C          63.0073   83.9829   12.2110 C.3     1  UNL1        0.0983
     31 C          62.5184   82.6077   11.8646 C.3     1  UNL1        0.0323
     32 C          62.5769   81.1628   12.2631 C.2     1  UNL1       -0.0304
     33 C          63.4626   81.0499   13.4684 C.2     1  UNL1       -0.0294
     34 C          63.9515   82.4251   13.8148 C.3     1  UNL1        0.0404
     35 C          63.3680   83.3879   12.8236 C.3     1  UNL1        0.0109
     36 C          62.6697   85.2487   11.4804 C.2     1  UNL1        0.2208
     37 N          62.6509   85.2668    9.9806 N.am    1  UNL1       -0.3288
     38 O          62.3509   86.4964   12.2495 O.2     1  UNL1       -0.2753
     39 H          62.8601   84.4479    9.4758 H       1  UNL1        0.1449
     40 H          62.4293   86.0976    9.5011 H       1  UNL1        0.1449
@<TRIPOS>BOND
     1    18    19    1
     2    19    12    1
     3    12    13   ar
     4    13    14   ar
     5    14    20    1
     6    20    21    1
     7    21    22    1
     8    22    23    1
     9    23    24    1
    10    24    25    1
    11    25    26    1
    12    14    15   ar
    13    15    16   ar
    14    16    17   ar
    15    17     1    1
    16     1     2   ar
    17     2     3   ar
    18     3     4   ar
    19     4    27    1
    20    29    27    1
    21    29    30    1
    22    30    36    1
    23    36    37   am
    24    36    38    2
    25    30    31    1
    26    31    32    1
    27    32    33    2
    28    34    33    1
    29    34    35    1
    30     4     5   ar
    31     5     6    1
    32     5     7   ar
    33     7     8   ar
    34     8     9   ar
    35     9    10   ar
    36    17    12   ar
    37    10     1   ar
    38    26    21    1
    39     9     3    1
    40    34    29    1
    41    35    31    1
    42    27    28    1
    43    37    39    1
    44    37    40    1
    45     8    11    1
@<TRIPOS>MOLECULE
*****
 40 45 0 0 0
SMALL
GASTEIGER

@<TRIPOS>ATOM
      1 C          64.4959   90.1653   14.5832 C.ar    1  UNL1        0.1669
      2 N          64.5584   88.7601   14.0623 N.ar    1  UNL1       -0.2221
      3 C          63.9538   87.8557   15.0950 C.ar    1  UNL1        0.1307
      4 C          63.7442   86.3708   15.1297 C.ar    1  UNL1        0.0777
      5 C          63.0982   85.7323   16.3235 C.ar    1  UNL1        0.0893
      6 CL         62.8885   84.2473   16.3582 Cl      1  UNL1       -0.0794
      7 C          62.6620   86.5786   17.4825 C.ar    1  UNL1        0.0863
      8 N          62.8717   88.0634   17.4478 N.ar    1  UNL1       -0.3354
      9 C          63.5176   88.7020   16.2541 C.ar    1  UNL1        0.1613
     10 N          63.8526   90.1294   15.9378 N.ar    1  UNL1       -0.2080
     11 H          62.5853   88.6189   18.2086 H       1  UNL1        0.1675
     12 C          65.9859   92.2932   14.5405 C.ar    1  UNL1        0.1413
     13 C          66.4798   93.5192   13.8312 C.ar    1  UNL1        0.0341
     14 C          65.9778   93.8433   12.4554 C.ar    1  UNL1       -0.0031
     15 C          64.9817   92.9413   11.7888 C.ar    1  UNL1       -0.0026
     16 C          64.4878   91.7153   12.4981 C.ar    1  UNL1        0.0058
     17 C          64.9898   91.3913   13.8739 C.ar    1  UNL1        0.0697
     18 C          67.8466   92.4361   16.3482 C.3     1  UNL1        0.2525
     19 O          66.4880   91.9693   15.9163 O.3     1  UNL1       -0.4713
     20 C          66.4717   95.0692   11.7462 C.3     1  UNL1        0.0994
     21 N          66.7681   95.0173   10.2767 N.3     1  UNL1       -0.2646
     22 C          66.2026   96.0614    9.3602 C.3     1  UNL1        0.1049
     23 C          66.4990   96.0093    7.8907 C.3     1  UNL1        0.1595
     24 O          67.3608   94.9132    7.3376 O.3     1  UNL1       -0.3508
     25 C          67.9263   93.8691    8.2542 C.3     1  UNL1        0.1595
     26 C          67.6299   93.9211    9.7238 C.3     1  UNL1        0.1049
     27 N          64.1804   85.5244   13.9706 N.pl3   1  UNL1       -0.3313
     28 H          65.0138   85.0035   14.0276 H       1  UNL1        0.1469
     29 C          63.3468   85.4717   12.7247 C.3     1  UNL1        0.0819
     30 C          62.9508   84.2309   11.9807 C.3     1  UNL1        0.0983
     31 C          62.1220   84.6429   10.8002 C.3     1  UNL1        0.0323
     32 C          61.5381   85.8217   10.0796 C.2     1  UNL1       -0.0304
     33 C          61.9341   87.0625   10.8236 C.2     1  UNL1       -0.0294
     34 C          62.7628   86.6506   12.0041 C.3     1  UNL1        0.0404
     35 C          62.8790   85.1551   11.9897 C.3     1  UNL1        0.0109
     36 C          63.3189   82.8249   12.3520 C.2     1  UNL1        0.2208
     37 N          64.6819   82.2940   12.0202 N.am    1  UNL1       -0.3288
     38 O          62.3238   81.9499   13.0551 O.2     1  UNL1       -0.2753
     39 H          65.3350   82.8683   11.5587 H       1  UNL1        0.1449
     40 H          64.9235   81.3712   12.2639 H       1  UNL1        0.1449
@<TRIPOS>BOND
     1    18    19    1
     2    19    12    1
     3    12    13   ar
     4    13    14   ar
     5    14    20    1
     6    20    21    1
     7    21    22    1
     8    22    23    1
     9    23    24    1
    10    24    25    1
    11    25    26    1
    12    14    15   ar
    13    15    16   ar
    14    16    17   ar
    15    17     1    1
    16     1     2   ar
    17     2     3   ar
    18     3     4   ar
    19     4    27    1
    20    29    27    1
    21    29    30    1
    22    30    36    1
    23    36    37   am
    24    36    38    2
    25    30    31    1
    26    31    32    1
    27    32    33    2
    28    34    33    1
    29    34    35    1
    30     4     5   ar
    31     5     6    1
    32     5     7   ar
    33     7     8   ar
    34     8     9   ar
    35     9    10   ar
    36    17    12   ar
    37    10     1   ar
    38    26    21    1
    39     9     3    1
    40    34    29    1
    41    35    31    1
    42    27    28    1
    43    37    39    1
    44    37    40    1
    45     8    11    1
@<TRIPOS>MOLECULE
*****
 40 45 0 0 0
SMALL
GASTEIGER

@<TRIPOS>ATOM
      1 C          61.5419   86.4284   10.2680 C.ar    1  UNL1        0.1669
      2 N          62.4039   86.8844   11.4078 N.ar    1  UNL1       -0.2221
      3 C          62.9369   85.6662   12.1020 C.ar    1  UNL1        0.1307
      4 C          63.8384   85.5015   13.2895 C.ar    1  UNL1        0.0777
      5 C          64.2073   84.1279   13.7663 C.ar    1  UNL1        0.0893
      6 CL         65.1088   83.9632   14.9538 Cl      1  UNL1       -0.0794
      7 C          63.6747   82.9192   13.0556 C.ar    1  UNL1        0.0863
      8 N          62.7732   83.0838   11.8682 N.ar    1  UNL1       -0.3354
      9 C          62.4043   84.4573   11.3913 C.ar    1  UNL1        0.1613
     10 N          61.5421   84.9284   10.2579 N.ar    1  UNL1       -0.2080
     11 H          62.4236   82.2904   11.4017 H       1  UNL1        0.1675
     12 C          60.8532   88.8059    9.4787 C.ar    1  UNL1        0.1413
     13 C          60.1197   89.6939    8.5178 C.ar    1  UNL1        0.0341
     14 C          59.3414   89.0926    7.3852 C.ar    1  UNL1       -0.0031
     15 C          59.2967   87.6031    7.2136 C.ar    1  UNL1       -0.0026
     16 C          60.0302   86.7151    8.1746 C.ar    1  UNL1        0.0058
     17 C          60.8084   87.3165    9.3071 C.ar    1  UNL1        0.0697
     18 C          62.6921   90.4307   10.3323 C.3     1  UNL1        0.2525
     19 O          61.6314   89.4074   10.6112 O.3     1  UNL1       -0.4713
     20 C          58.6079   89.9806    6.4243 C.3     1  UNL1        0.0994
     21 N          59.3717   90.7890    5.4178 N.3     1  UNL1       -0.2646
     22 C          58.6769   91.8649    4.6369 C.3     1  UNL1        0.1049
     23 C          59.4408   92.6732    3.6304 C.3     1  UNL1        0.1595
     24 O          60.8994   92.4058    3.4048 O.3     1  UNL1       -0.3508
     25 C          61.5942   91.3299    4.1857 C.3     1  UNL1        0.1595
     26 C          60.8303   90.5215    5.1922 C.3     1  UNL1        0.1049
     27 N          64.3711   86.7103   14.0002 N.pl3   1  UNL1       -0.3313
     28 H          65.0856   87.2482   13.5888 H       1  UNL1        0.1469
     29 C          63.8150   87.0996   15.3378 C.3     1  UNL1        0.0819
     30 C          63.5098   88.4958   15.7933 C.3     1  UNL1        0.0983
     31 C          62.9727   88.4201   17.1918 C.3     1  UNL1        0.0323
     32 C          62.6241   87.4816   18.3088 C.2     1  UNL1       -0.0304
     33 C          62.9292   86.0854   17.8533 C.2     1  UNL1       -0.0294
     34 C          63.4664   86.1610   16.4548 C.3     1  UNL1        0.0404
     35 C          63.4933   87.6040   16.0459 C.3     1  UNL1        0.0109
     36 C          63.7072   89.7479   14.9912 C.2     1  UNL1        0.2208
     37 N          62.6184   90.2356   14.0820 N.am    1  UNL1       -0.3288
     38 O          64.9934   90.5122   15.0983 O.2     1  UNL1       -0.2753
     39 H          61.7743   89.7339   14.0117 H       1  UNL1        0.1449
     40 H          62.7480   91.0573   13.5555 H       1  UNL1        0.1449
@<TRIPOS>BOND
     1    18    19    1
     2    19    12    1
     3    12    13   ar
     4    13    14   ar
     5    14    20    1
     6    20    21    1
     7    21    22    1
     8    22    23    1
     9    23    24    1
    10    24    25    1
    11    25    26    1
    12    14    15   ar
    13    15    16   ar
    14    16    17   ar
    15    17     1    1
    16     1     2   ar
    17     2     3   ar
    18     3     4   ar
    19     4    27    1
    20    29    27    1
    21    29    30    1
    22    30    36    1
    23    36    37   am
    24    36    38    2
    25    30    31    1
    26    31    32    1
    27    32    33    2
    28    34    33    1
    29    34    35    1
    30     4     5   ar
    31     5     6    1
    32     5     7   ar
    33     7     8   ar
    34     8     9   ar
    35     9    10   ar
    36    17    12   ar
    37    10     1   ar
    38    26    21    1
    39     9     3    1
    40    34    29    1
    41    35    31    1
    42    27    28    1
    43    37    39    1
    44    37    40    1
    45     8    11    1
@<TRIPOS>MOLECULE
*****
 40 45 0 0 0
SMALL
GASTEIGER

@<TRIPOS>ATOM
      1 C          63.0545   90.2589   12.1380 C.ar    1  UNL1        0.1669
      2 N          62.5454   88.8484   12.1746 N.ar    1  UNL1       -0.2221
      3 C          61.6763   88.6380   10.9702 C.ar    1  UNL1        0.1307
      4 C          60.9068   87.4458   10.4838 C.ar    1  UNL1        0.0777
      5 C          60.1093   87.5342    9.2163 C.ar    1  UNL1        0.0893
      6 CL         59.3398   86.3420    8.7298 Cl      1  UNL1       -0.0794
      7 C          60.0814   88.8145    8.4355 C.ar    1  UNL1        0.0863
      8 N          60.8509   90.0066    8.9219 N.ar    1  UNL1       -0.3354
      9 C          61.6483   89.9184   10.1893 C.ar    1  UNL1        0.1613
     10 N          62.5001   90.9202   10.9110 N.ar    1  UNL1       -0.2080
     11 H          60.8325   90.8470    8.4094 H       1  UNL1        0.1675
     12 C          63.7989   90.5751   14.6070 C.ar    1  UNL1        0.1413
     13 C          64.7036   91.2125   15.6195 C.ar    1  UNL1        0.0341
     14 C          65.7687   92.1710   15.1757 C.ar    1  UNL1       -0.0031
     15 C          65.9290   92.4921   13.7193 C.ar    1  UNL1       -0.0026
     16 C          65.0242   91.8547   12.7067 C.ar    1  UNL1        0.0058
     17 C          63.9592   90.8962   13.1506 C.ar    1  UNL1        0.0697
     18 C          62.7429   89.0818   16.4523 C.3     1  UNL1        0.2525
     19 O          62.7339   89.6166   15.0509 O.3     1  UNL1       -0.4713
     20 C          66.6734   92.8083   16.1883 C.3     1  UNL1        0.0994
     21 N          68.0724   93.1924   15.8074 N.3     1  UNL1       -0.2646
     22 C          68.8661   92.3156   14.8847 C.3     1  UNL1        0.1049
     23 C          70.2651   92.6998   14.5039 C.3     1  UNL1        0.1595
     24 O          70.8706   93.9607   15.0458 O.3     1  UNL1       -0.3508
     25 C          70.0770   94.8374   15.9685 C.3     1  UNL1        0.1595
     26 C          68.6778   94.4533   16.3493 C.3     1  UNL1        0.1049
     27 N          60.9347   86.1654   11.2646 N.pl3   1  UNL1       -0.3313
     28 H          60.1734   85.9229   11.8398 H       1  UNL1        0.1469
     29 C          62.1226   85.2544   11.1691 C.3     1  UNL1        0.0819
     30 C          63.0461   84.8891   12.2932 C.3     1  UNL1        0.0983
     31 C          64.0898   83.9577   11.7515 C.3     1  UNL1        0.0323
     32 C          64.5626   83.2521   10.5152 C.2     1  UNL1       -0.0304
     33 C          63.6390   83.6174    9.3911 C.2     1  UNL1       -0.0294
     34 C          62.5954   84.5488    9.9327 C.3     1  UNL1        0.0404
     35 C          62.8739   84.7592   11.3916 C.3     1  UNL1        0.0109
     36 C          62.9440   85.3706   13.7102 C.2     1  UNL1        0.2208
     37 N          63.6993   86.5920   14.1435 N.am    1  UNL1       -0.3288
     38 O          62.0865   84.6308   14.6937 O.2     1  UNL1       -0.2753
     39 H          64.2620   87.0775   13.4980 H       1  UNL1        0.1449
     40 H          63.6322   86.9080   15.0735 H       1  UNL1        0.1449
@<TRIPOS>BOND
     1    18    19    1
     2    19    12    1
     3    12    13   ar
     4    13    14   ar
     5    14    20    1
     6    20    21    1
     7    21    22    1
     8    22    23    1
     9    23    24    1
    10    24    25    1
    11    25    26    1
    12    14    15   ar
    13    15    16   ar
    14    16    17   ar
    15    17     1    1
    16     1     2   ar
    17     2     3   ar
    18     3     4   ar
    19     4    27    1
    20    29    27    1
    21    29    30    1
    22    30    36    1
    23    36    37   am
    24    36    38    2
    25    30    31    1
    26    31    32    1
    27    32    33    2
    28    34    33    1
    29    34    35    1
    30     4     5   ar
    31     5     6    1
    32     5     7   ar
    33     7     8   ar
    34     8     9   ar
    35     9    10   ar
    36    17    12   ar
    37    10     1   ar
    38    26    21    1
    39     9     3    1
    40    34    29    1
    41    35    31    1
    42    27    28    1
    43    37    39    1
    44    37    40    1
    45     8    11    1
@<TRIPOS>MOLECULE
*****
 40 45 0 0 0
SMALL
GASTEIGER

@<TRIPOS>ATOM
      1 C          61.8659   87.4515   11.1773 C.ar    1  UNL1        0.1669
      2 N          61.8573   86.1047   11.8375 N.ar    1  UNL1       -0.2221
      3 C          62.8060   86.1516   12.9985 C.ar    1  UNL1        0.1307
      4 C          63.2050   85.1192   14.0109 C.ar    1  UNL1        0.0777
      5 C          64.1990   85.4627   15.0805 C.ar    1  UNL1        0.0893
      6 CL         64.5980   84.4303   16.0930 Cl      1  UNL1       -0.0794
      7 C          64.7939   86.8385   15.1377 C.ar    1  UNL1        0.0863
      8 N          64.3949   87.8708   14.1253 N.ar    1  UNL1       -0.3354
      9 C          63.4009   87.5274   13.0557 C.ar    1  UNL1        0.1613
     10 N          62.8199   88.3308   11.9301 N.ar    1  UNL1       -0.2080
     11 H          64.7853   88.7738   14.1629 H       1  UNL1        0.1675
     12 C          60.8766   89.3003    9.6433 C.ar    1  UNL1        0.1413
     13 C          60.0723   89.6980    8.4411 C.ar    1  UNL1        0.0341
     14 C          59.4532   88.6447    7.5709 C.ar    1  UNL1       -0.0031
     15 C          59.6383   87.1937    7.9028 C.ar    1  UNL1       -0.0026
     16 C          60.4426   86.7960    9.1050 C.ar    1  UNL1        0.0058
     17 C          61.0617   87.8493    9.9752 C.ar    1  UNL1        0.0697
     18 C          62.7489   91.0498   10.0721 C.3     1  UNL1        0.2525
     19 O          61.4957   90.3537   10.5134 O.3     1  UNL1       -0.4713
     20 C          58.6490   89.0425    6.3688 C.3     1  UNL1        0.0994
     21 N          59.0121   90.2775    5.5988 N.3     1  UNL1       -0.2646
     22 C          60.4370   90.5190    5.1971 C.3     1  UNL1        0.1049
     23 C          60.8000   91.7540    4.4270 C.3     1  UNL1        0.1595
     24 O          59.7382   92.7475    4.0586 O.3     1  UNL1       -0.3508
     25 C          58.3134   92.5059    4.4603 C.3     1  UNL1        0.1595
     26 C          57.9503   91.2708    5.2304 C.3     1  UNL1        0.1049
     27 N          62.6101   83.7434   13.9537 N.pl3   1  UNL1       -0.3313
     28 H          62.0327   83.4260   14.6852 H       1  UNL1        0.1469
     29 C          62.8950   82.8512   12.7821 C.3     1  UNL1        0.0819
     30 C          62.5932   81.3843   12.6970 C.3     1  UNL1        0.0983
     31 C          63.0433   80.8957   11.3522 C.3     1  UNL1        0.0323
     32 C          63.6799   81.3137   10.0599 C.2     1  UNL1       -0.0304
     33 C          63.9817   82.7806   10.1449 C.2     1  UNL1       -0.0294
     34 C          63.5316   83.2692   11.4898 C.3     1  UNL1        0.0404
     35 C          62.9516   82.1043   12.2359 C.3     1  UNL1        0.0109
     36 C          61.9536   80.5521   13.7687 C.2     1  UNL1        0.2208
     37 N          60.5036   80.7432   14.1014 N.am    1  UNL1       -0.3288
     38 O          62.7642   79.5289   14.5077 O.2     1  UNL1       -0.2753
     39 H          59.9716   81.4147   13.6164 H       1  UNL1        0.1449
     40 H          60.0838   80.1970   14.8048 H       1  UNL1        0.1449
@<TRIPOS>BOND
     1    18    19    1
     2    19    12    1
     3    12    13   ar
     4    13    14   ar
     5    14    20    1
     6    20    21    1
     7    21    22    1
     8    22    23    1
     9    23    24    1
    10    24    25    1
    11    25    26    1
    12    14    15   ar
    13    15    16   ar
    14    16    17   ar
    15    17     1    1
    16     1     2   ar
    17     2     3   ar
    18     3     4   ar
    19     4    27    1
    20    29    27    1
    21    29    30    1
    22    30    36    1
    23    36    37   am
    24    36    38    2
    25    30    31    1
    26    31    32    1
    27    32    33    2
    28    34    33    1
    29    34    35    1
    30     4     5   ar
    31     5     6    1
    32     5     7   ar
    33     7     8   ar
    34     8     9   ar
    35     9    10   ar
    36    17    12   ar
    37    10     1   ar
    38    26    21    1
    39     9     3    1
    40    34    29    1
    41    35    31    1
    42    27    28    1
    43    37    39    1
    44    37    40    1
    45     8    11    1
@<TRIPOS>MOLECULE
*****
 40 45 0 0 0
SMALL
GASTEIGER

@<TRIPOS>ATOM
      1 C          63.8812   90.2956   12.5301 C.ar    1  UNL1        0.1669
      2 N          64.4975   91.6052   12.1363 N.ar    1  UNL1       -0.2221
      3 C          65.3125   92.1006   13.2940 C.ar    1  UNL1        0.1307
      4 C          66.1426   93.3359   13.4813 C.ar    1  UNL1        0.0777
      5 C          66.8601   93.5677   14.7781 C.ar    1  UNL1        0.0893
      6 CL         67.6903   94.8030   14.9655 Cl      1  UNL1       -0.0794
      7 C          66.7476   92.5643   15.8873 C.ar    1  UNL1        0.0863
      8 N          65.9175   91.3291   15.7000 N.ar    1  UNL1       -0.3354
      9 C          65.1999   91.0973   14.4033 C.ar    1  UNL1        0.1613
     10 N          64.3153   89.9816   13.9312 N.ar    1  UNL1       -0.2080
     11 H          65.8436   90.6706   16.4280 H       1  UNL1        0.1675
     12 C          62.8366   87.9849   11.9647 C.ar    1  UNL1        0.1413
     13 C          61.9431   87.1379   11.1078 C.ar    1  UNL1        0.0341
     14 C          61.2006   87.7545    9.9596 C.ar    1  UNL1       -0.0031
     15 C          61.3516   89.2181    9.6682 C.ar    1  UNL1       -0.0026
     16 C          62.2452   90.0651   10.5250 C.ar    1  UNL1        0.0058
     17 C          62.9877   89.4485   11.6733 C.ar    1  UNL1        0.0697
     18 C          63.5954   85.8778   13.2818 C.3     1  UNL1        0.2525
     19 O          63.5791   87.3682   13.1129 O.3     1  UNL1       -0.4713
     20 C          60.3070   86.9075    9.1028 C.3     1  UNL1        0.0994
     21 N          60.9028   85.9790    8.0865 N.3     1  UNL1       -0.2646
     22 C          62.3581   85.6225    8.1582 C.3     1  UNL1        0.1049
     23 C          62.9538   84.6940    7.1419 C.3     1  UNL1        0.1595
     24 O          62.0943   84.1219    6.0537 O.3     1  UNL1       -0.3508
     25 C          60.6391   84.4784    5.9820 C.3     1  UNL1        0.1595
     26 C          60.0433   85.4069    6.9984 C.3     1  UNL1        0.1049
     27 N          66.2552   94.3393   12.3721 N.pl3   1  UNL1       -0.3313
     28 H          65.8953   95.2478   12.4917 H       1  UNL1        0.1469
     29 C          66.9163   93.9586   11.0806 C.3     1  UNL1        0.0819
     30 C          66.9636   94.7929    9.8349 C.3     1  UNL1        0.0983
     31 C          67.7227   94.0266    8.7924 C.3     1  UNL1        0.0323
     32 C          68.4524   92.7448    8.5198 C.2     1  UNL1       -0.0304
     33 C          68.4050   91.9105    9.7655 C.2     1  UNL1       -0.0294
     34 C          67.6460   92.6767   10.8080 C.3     1  UNL1        0.0404
     35 C          67.2243   93.9846   10.2066 C.3     1  UNL1        0.0109
     36 C          66.3583   96.1544    9.6620 C.2     1  UNL1        0.2208
     37 N          66.4184   96.8381    8.3283 N.am    1  UNL1       -0.3288
     38 O          65.6927   96.8321   10.8229 O.2     1  UNL1       -0.2753
     39 H          66.8553   96.3933    7.5664 H       1  UNL1        0.1449
     40 H          66.0211   97.7317    8.2149 H       1  UNL1        0.1449
@<TRIPOS>BOND
     1    18    19    1
     2    19    12    1
     3    12    13   ar
     4    13    14   ar
     5    14    20    1
     6    20    21    1
     7    21    22    1
     8    22    23    1
     9    23    24    1
    10    24    25    1
    11    25    26    1
    12    14    15   ar
    13    15    16   ar
    14    16    17   ar
    15    17     1    1
    16     1     2   ar
    17     2     3   ar
    18     3     4   ar
    19     4    27    1
    20    29    27    1
    21    29    30    1
    22    30    36    1
    23    36    37   am
    24    36    38    2
    25    30    31    1
    26    31    32    1
    27    32    33    2
    28    34    33    1
    29    34    35    1
    30     4     5   ar
    31     5     6    1
    32     5     7   ar
    33     7     8   ar
    34     8     9   ar
    35     9    10   ar
    36    17    12   ar
    37    10     1   ar
    38    26    21    1
    39     9     3    1
    40    34    29    1
    41    35    31    1
    42    27    28    1
    43    37    39    1
    44    37    40    1
    45     8    11    1
@<TRIPOS>MOLECULE
*****
 40 45 0 0 0
SMALL
GASTEIGER

@<TRIPOS>ATOM
      1 C          64.6791   89.4705   13.7982 C.ar    1  UNL1        0.1669
      2 N          64.6789   90.4559   12.6672 N.ar    1  UNL1       -0.2221
      3 C          65.3287   91.7179   13.1518 C.ar    1  UNL1        0.1307
      4 C          65.6064   93.0275   12.4753 C.ar    1  UNL1        0.0777
      5 C          66.2861   94.1319   13.2294 C.ar    1  UNL1        0.0893
      6 CL         66.5639   95.4416   12.5529 Cl      1  UNL1       -0.0794
      7 C          66.6880   93.9266   14.6598 C.ar    1  UNL1        0.0863
      8 N          66.4103   92.6169   15.3363 N.ar    1  UNL1       -0.3354
      9 C          65.7306   91.5126   14.5823 C.ar    1  UNL1        0.1613
     10 N          65.3291   90.1236   14.9818 N.ar    1  UNL1       -0.2080
     11 H          66.6740   92.4821   16.2752 H       1  UNL1        0.1675
     12 C          63.2042   87.6710   12.6421 C.ar    1  UNL1        0.1413
     13 C          62.6515   86.2772   12.5975 C.ar    1  UNL1        0.0341
     14 C          63.0210   85.2893   13.6640 C.ar    1  UNL1       -0.0031
     15 C          63.9431   85.6951   14.7752 C.ar    1  UNL1       -0.0026
     16 C          64.4958   87.0889   14.8199 C.ar    1  UNL1        0.0058
     17 C          64.1264   88.0768   13.7534 C.ar    1  UNL1        0.0697
     18 C          62.1160   88.1976   10.3425 C.3     1  UNL1        0.2525
     19 O          62.8347   88.6589   11.5756 O.3     1  UNL1       -0.4713
     20 C          62.4682   83.8955   13.6192 C.3     1  UNL1        0.0994
     21 N          62.8495   82.9732   12.4995 N.3     1  UNL1       -0.2646
     22 C          63.6415   83.4928   11.3364 C.3     1  UNL1        0.1049
     23 C          64.0227   82.5704   10.2167 C.3     1  UNL1        0.1595
     24 O          63.6119   81.1283   10.2599 O.3     1  UNL1       -0.3508
     25 C          62.8199   80.6088   11.4230 C.3     1  UNL1        0.1595
     26 C          62.4387   81.5312   12.5428 C.3     1  UNL1        0.1049
     27 N          65.2046   93.2330   11.0448 N.pl3   1  UNL1       -0.3313
     28 H          64.4202   92.7619   10.6813 H       1  UNL1        0.1469
     29 C          65.9977   94.1561   10.1681 C.3     1  UNL1        0.0819
     30 C          67.3312   93.8561    9.5502 C.3     1  UNL1        0.0983
     31 C          67.7544   95.0559    8.7556 C.3     1  UNL1        0.0323
     32 C          67.3533   96.4411    8.3428 C.2     1  UNL1       -0.0304
     33 C          66.0198   96.7411    8.9607 C.2     1  UNL1       -0.0294
     34 C          65.5967   95.5413    9.7553 C.3     1  UNL1        0.0404
     35 C          66.6687   94.4998    9.6286 C.3     1  UNL1        0.0109
     36 C          68.1057   92.5803    9.7006 C.2     1  UNL1        0.2208
     37 N          68.5606   92.1347   11.0587 N.am    1  UNL1       -0.3288
     38 O          68.4252   91.7501    8.4928 O.2     1  UNL1       -0.2753
     39 H          68.3509   92.6795   11.8514 H       1  UNL1        0.1449
     40 H          69.0689   91.2973   11.1574 H       1  UNL1        0.1449
@<TRIPOS>BOND
     1    18    19    1
     2    19    12    1
     3    12    13   ar
     4    13    14   ar
     5    14    20    1
     6    20    21    1
     7    21    22    1
     8    22    23    1
     9    23    24    1
    10    24    25    1
    11    25    26    1
    12    14    15   ar
    13    15    16   ar
    14    16    17   ar
    15    17     1    1
    16     1     2   ar
    17     2     3   ar
    18     3     4   ar
    19     4    27    1
    20    29    27    1
    21    29    30    1
    22    30    36    1
    23    36    37   am
    24    36    38    2
    25    30    31    1
    26    31    32    1
    27    32    33    2
    28    34    33    1
    29    34    35    1
    30     4     5   ar
    31     5     6    1
    32     5     7   ar
    33     7     8   ar
    34     8     9   ar
    35     9    10   ar
    36    17    12   ar
    37    10     1   ar
    38    26    21    1
    39     9     3    1
    40    34    29    1
    41    35    31    1
    42    27    28    1
    43    37    39    1
    44    37    40    1
    45     8    11    1
