@<TRIPOS>MOLECULE
*****
 32 35 0 0 0
SMALL
GASTEIGER

@<TRIPOS>ATOM
      1 C          60.6222   86.7383    8.2792 C.3     1  UNL1        0.0795
      2 C          59.9154   87.5931    7.2694 C.3     1  UNL1        0.0178
      3 C          59.6031   89.0256    7.5866 C.3     1  UNL1        0.0029
      4 C          59.9975   89.6031    8.9136 C.3     1  UNL1        0.0178
      5 C          60.7043   88.7483    9.9233 C.3     1  UNL1        0.0799
      6 N          61.0166   87.3158    9.6061 N.3     1  UNL1       -0.1583
      7 C          61.0987   89.3258   11.2503 C.3     1  UNL1        0.0237
      8 C          60.9761   89.8842   12.6371 C.3     1  UNL1        0.0019
      9 C          59.7466   89.4712   11.8834 C.3     1  UNL1        0.0019
     10 C          62.5877   89.3810   11.0780 C.3     1  UNL1        0.0866
     11 C          63.2731   90.7027   10.8951 C.2     1  UNL1        0.2257
     12 O          63.0277   91.5093    9.6544 O.2     1  UNL1       -0.2749
     13 N          64.2036   91.2178   11.9527 N.am    1  UNL1       -0.2787
     14 C          64.9562   92.5147   11.9095 C.3     1  UNL1        0.0935
     15 C          65.7627   92.6248   13.1694 C.3     1  UNL1        0.0233
     16 C          65.5087   91.3960   13.9913 C.3     1  UNL1        0.0241
     17 C          64.5451   90.5264   13.2394 C.3     1  UNL1        0.1046
     18 C          64.0160   89.1986   13.6942 C.3     1  UNL1        0.1568
     19 O          63.4809   89.0416   15.0867 O.3     1  UNL1       -0.3802
     20 H          64.2021   89.1562   15.7251 H       1  UNL1        0.2105
     21 S          61.7235   86.4610   10.6159 S.O2    1  UNL1        0.0632
     22 O          62.9004   86.3444    9.6934 O.2     1  UNL1       -0.1528
     23 O          60.8496   86.3767   11.6415 O.2     1  UNL1       -0.1528
     24 C          62.4303   85.6062   11.6257 C.ar    1  UNL1        0.1222
     25 C          62.4808   84.1179   11.4446 C.ar    1  UNL1        0.0208
     26 C          63.1876   83.2631   12.4543 C.ar    1  UNL1        0.0128
     27 C          63.8440   83.8964   13.6452 C.ar    1  UNL1        0.0578
     28 CL         64.5508   83.0416   14.6549 Cl      1  UNL1       -0.0822
     29 C          63.7935   85.3846   13.8263 C.ar    1  UNL1        0.0128
     30 C          63.0866   86.2395   12.8165 C.ar    1  UNL1        0.0208
     31 C          61.6438   84.9575    6.6870 C.3     1  UNL1        0.0015
     32 C          60.9346   85.3059    7.9620 C.3     1  UNL1        0.0177
@<TRIPOS>BOND
     1    31    32    1
     2     1    32    1
     3     1     2    1
     4     2     3    1
     5     3     4    1
     6     4     5    1
     7     5     7    1
     8     7    10    1
     9    10    11    1
    10    11    12    2
    11    11    13   am
    12    13    14    1
    13    14    15    1
    14    15    16    1
    15    16    17    1
    16    17    18    1
    17    18    19    1
    18     7     8    1
    19     8     9    1
    20     5     6    1
    21     6    21    1
    22    21    22    2
    23    21    23    2
    24    21    24    1
    25    24    25   ar
    26    25    26   ar
    27    26    27   ar
    28    27    28    1
    29    27    29   ar
    30    29    30   ar
    31     6     1    1
    32    30    24   ar
    33     9     7    1
    34    17    13    1
    35    19    20    1
@<TRIPOS>MOLECULE
*****
 32 35 0 0 0
SMALL
GASTEIGER

@<TRIPOS>ATOM
      1 C          63.1405   85.6264   12.5410 C.3     1  UNL1        0.0795
      2 C          63.9639   85.2140   13.7250 C.3     1  UNL1        0.0178
      3 C          64.5085   86.2541   14.6587 C.3     1  UNL1        0.0029
      4 C          64.2297   87.7065   14.4084 C.3     1  UNL1        0.0178
      5 C          63.4063   88.1189   13.2244 C.3     1  UNL1        0.0799
      6 N          62.8617   87.0789   12.2907 N.3     1  UNL1       -0.1583
      7 C          63.1274   89.5714   12.9740 C.3     1  UNL1        0.0237
      8 C          62.3723   90.8623   12.8591 C.3     1  UNL1        0.0019
      9 C          61.6589   89.6107   13.2772 C.3     1  UNL1        0.0019
     10 C          64.4991   90.0363   12.5839 C.3     1  UNL1        0.0866
     11 C          65.1459   91.1691   13.3246 C.2     1  UNL1        0.2257
     12 O          65.4431   91.0351   14.7888 O.2     1  UNL1       -0.2749
     13 N          65.4955   92.4357   12.6012 N.am    1  UNL1       -0.2787
     14 C          66.1419   93.6468   13.2059 C.3     1  UNL1        0.0935
     15 C          66.3059   94.6733   12.1245 C.3     1  UNL1        0.0233
     16 C          65.7609   94.0967   10.8515 C.3     1  UNL1        0.0241
     17 C          65.2600   92.7138   11.1461 C.3     1  UNL1        0.1046
     18 C          64.6337   91.7740   10.1590 C.3     1  UNL1        0.1568
     19 O          63.2039   91.9630    9.7466 O.3     1  UNL1       -0.3802
     20 H          62.6243   91.8079   10.5087 H       1  UNL1        0.2105
     21 S          62.0383   87.4913   11.1066 S.O2    1  UNL1        0.0632
     22 O          60.8095   86.9445   11.7707 O.2     1  UNL1       -0.1528
     23 O          62.9320   88.0586   10.2689 O.2     1  UNL1       -0.1528
     24 C          61.2148   87.9038    9.9227 C.ar    1  UNL1        0.1222
     25 C          60.9949   89.3589    9.6323 C.ar    1  UNL1        0.0208
     26 C          60.1715   89.7713    8.4483 C.ar    1  UNL1        0.0128
     27 C          59.5680   88.7287    7.5547 C.ar    1  UNL1        0.0578
     28 CL         58.7445   89.1411    6.3707 Cl      1  UNL1       -0.0822
     29 C          59.7879   87.2736    7.8450 C.ar    1  UNL1        0.0128
     30 C          60.6113   86.8611    9.0290 C.ar    1  UNL1        0.0208
     31 C          63.5336   83.7374   10.8012 C.3     1  UNL1        0.0015
     32 C          62.5959   84.5864   11.6073 C.3     1  UNL1        0.0177
@<TRIPOS>BOND
     1    31    32    1
     2     1    32    1
     3     1     2    1
     4     2     3    1
     5     3     4    1
     6     4     5    1
     7     5     7    1
     8     7    10    1
     9    10    11    1
    10    11    12    2
    11    11    13   am
    12    13    14    1
    13    14    15    1
    14    15    16    1
    15    16    17    1
    16    17    18    1
    17    18    19    1
    18     7     8    1
    19     8     9    1
    20     5     6    1
    21     6    21    1
    22    21    22    2
    23    21    23    2
    24    21    24    1
    25    24    25   ar
    26    25    26   ar
    27    26    27   ar
    28    27    28    1
    29    27    29   ar
    30    29    30   ar
    31     6     1    1
    32    30    24   ar
    33     9     7    1
    34    17    13    1
    35    19    20    1
@<TRIPOS>MOLECULE
*****
 32 35 0 0 0
SMALL
GASTEIGER

@<TRIPOS>ATOM
      1 C          63.0887   85.7358   12.4300 C.3     1  UNL1        0.0795
      2 C          63.9340   85.3657   13.6125 C.3     1  UNL1        0.0178
      3 C          64.4542   86.4351   14.5267 C.3     1  UNL1        0.0029
      4 C          64.1291   87.8746   14.2583 C.3     1  UNL1        0.0178
      5 C          63.2838   88.2447   13.0758 C.3     1  UNL1        0.0799
      6 N          62.7636   87.1753   12.1616 N.3     1  UNL1       -0.1583
      7 C          62.9587   89.6843   12.8074 C.3     1  UNL1        0.0237
      8 C          62.1617   90.9479   12.6723 C.3     1  UNL1        0.0019
      9 C          61.4870   89.6775   13.0978 C.3     1  UNL1        0.0019
     10 C          64.3174   90.1910   12.4238 C.3     1  UNL1        0.0866
     11 C          64.4474   91.3316   11.4583 C.2     1  UNL1        0.2257
     12 O          63.8050   91.2460   10.1056 O.2     1  UNL1       -0.2749
     13 N          65.2198   92.5577   11.8456 N.am    1  UNL1       -0.2787
     14 C          65.4345   93.7712   10.9903 C.3     1  UNL1        0.0935
     15 C          66.2605   94.7491   11.7723 C.3     1  UNL1        0.0233
     16 C          66.5563   94.1400   13.1107 C.3     1  UNL1        0.0241
     17 C          65.9131   92.7857   13.1560 C.3     1  UNL1        0.1046
     18 C          65.9558   91.8275   14.3093 C.3     1  UNL1        0.1568
     19 O          65.0009   91.9894   15.4547 O.3     1  UNL1       -0.3802
     20 H          65.1953   92.8162   15.9233 H       1  UNL1        0.2105
     21 S          61.9182   87.5455   10.9791 S.O2    1  UNL1        0.0632
     22 O          60.6904   87.1031   11.7184 O.2     1  UNL1       -0.1528
     23 O          62.8064   88.0125   10.0760 O.2     1  UNL1       -0.1528
     24 C          61.0729   87.9157    9.7966 C.ar    1  UNL1        0.1222
     25 C          60.9008   89.3573    9.4194 C.ar    1  UNL1        0.0208
     26 C          60.0554   89.7274    8.2370 C.ar    1  UNL1        0.0128
     27 C          59.3821   88.6560    7.4315 C.ar    1  UNL1        0.0578
     28 CL         58.5368   89.0262    6.2491 Cl      1  UNL1       -0.0822
     29 C          59.5542   87.2144    7.8086 C.ar    1  UNL1        0.0128
     30 C          60.3996   86.8442    8.9912 C.ar    1  UNL1        0.0208
     31 C          63.5202   83.8781   10.6658 C.3     1  UNL1        0.0015
     32 C          62.5685   84.6664   11.5158 C.3     1  UNL1        0.0177
@<TRIPOS>BOND
     1    31    32    1
     2     1    32    1
     3     1     2    1
     4     2     3    1
     5     3     4    1
     6     4     5    1
     7     5     7    1
     8     7    10    1
     9    10    11    1
    10    11    12    2
    11    11    13   am
    12    13    14    1
    13    14    15    1
    14    15    16    1
    15    16    17    1
    16    17    18    1
    17    18    19    1
    18     7     8    1
    19     8     9    1
    20     5     6    1
    21     6    21    1
    22    21    22    2
    23    21    23    2
    24    21    24    1
    25    24    25   ar
    26    25    26   ar
    27    26    27   ar
    28    27    28    1
    29    27    29   ar
    30    29    30   ar
    31     6     1    1
    32    30    24   ar
    33     9     7    1
    34    17    13    1
    35    19    20    1
@<TRIPOS>MOLECULE
*****
 32 35 0 0 0
SMALL
GASTEIGER

@<TRIPOS>ATOM
      1 C          60.6307   86.7339    8.2919 C.3     1  UNL1        0.0795
      2 C          59.9846   87.7165    7.3608 C.3     1  UNL1        0.0178
      3 C          59.7456   89.1282    7.8081 C.3     1  UNL1        0.0029
      4 C          60.1527   89.5573    9.1865 C.3     1  UNL1        0.0178
      5 C          60.7988   88.5747   10.1176 C.3     1  UNL1        0.0799
      6 N          61.0378   87.1630    9.6703 N.3     1  UNL1       -0.1583
      7 C          61.2059   89.0037   11.4961 C.3     1  UNL1        0.0237
      8 C          61.0959   89.4823   12.9135 C.3     1  UNL1        0.0019
      9 C          59.8583   89.2955   12.0868 C.3     1  UNL1        0.0019
     10 C          62.6949   88.8609   11.3842 C.3     1  UNL1        0.0866
     11 C          63.5463   88.8927   12.6188 C.2     1  UNL1        0.2257
     12 O          63.6292   87.6845   13.5039 O.2     1  UNL1       -0.2749
     13 N          64.3146   90.1326   12.9682 N.am    1  UNL1       -0.2787
     14 C          65.2027   90.3120   14.1637 C.3     1  UNL1        0.0935
     15 C          65.7668   91.7012   14.1178 C.3     1  UNL1        0.0233
     16 C          65.2274   92.3803   12.8941 C.3     1  UNL1        0.0241
     17 C          64.3299   91.4109   12.1835 C.3     1  UNL1        0.1046
     18 C          63.5794   91.6737   10.9116 C.3     1  UNL1        0.1568
     19 O          64.1196   92.6512    9.9103 O.3     1  UNL1       -0.3802
     20 H          64.1101   93.5431   10.2915 H       1  UNL1        0.2105
     21 S          61.6839   86.1804   10.6015 S.O2    1  UNL1        0.0632
     22 O          62.7882   85.9662    9.6093 O.2     1  UNL1       -0.1528
     23 O          60.8602   86.1535   11.6708 O.2     1  UNL1       -0.1528
     24 C          62.3300   85.1978   11.5327 C.ar    1  UNL1        0.1222
     25 C          62.0385   85.2546   13.0031 C.ar    1  UNL1        0.0208
     26 C          62.6846   84.2720   13.9342 C.ar    1  UNL1        0.0128
     27 C          63.6222   83.2327   13.3950 C.ar    1  UNL1        0.0578
     28 CL         64.2683   82.2501   14.3262 Cl      1  UNL1       -0.0822
     29 C          63.9137   83.1758   11.9248 C.ar    1  UNL1        0.0128
     30 C          63.2675   84.1584   10.9935 C.ar    1  UNL1        0.0208
     31 C          61.6832   85.0532    6.6135 C.3     1  UNL1        0.0015
     32 C          60.8697   85.3223    7.8446 C.3     1  UNL1        0.0177
@<TRIPOS>BOND
     1    31    32    1
     2     1    32    1
     3     1     2    1
     4     2     3    1
     5     3     4    1
     6     4     5    1
     7     5     7    1
     8     7    10    1
     9    10    11    1
    10    11    12    2
    11    11    13   am
    12    13    14    1
    13    14    15    1
    14    15    16    1
    15    16    17    1
    16    17    18    1
    17    18    19    1
    18     7     8    1
    19     8     9    1
    20     5     6    1
    21     6    21    1
    22    21    22    2
    23    21    23    2
    24    21    24    1
    25    24    25   ar
    26    25    26   ar
    27    26    27   ar
    28    27    28    1
    29    27    29   ar
    30    29    30   ar
    31     6     1    1
    32    30    24   ar
    33     9     7    1
    34    17    13    1
    35    19    20    1
@<TRIPOS>MOLECULE
*****
 32 35 0 0 0
SMALL
GASTEIGER

@<TRIPOS>ATOM
      1 C          64.3098   95.1817   -0.3692 C.3     1  UNL1        0.0795
      2 C          64.9277   95.9865   -1.4740 C.3     1  UNL1        0.0178
      3 C          64.0572   96.6133   -2.5225 C.3     1  UNL1        0.0029
      4 C          62.5689   96.4352   -2.4664 C.3     1  UNL1        0.0178
      5 C          61.9511   95.6304   -1.3616 C.3     1  UNL1        0.0799
      6 N          62.8215   95.0036   -0.3131 N.3     1  UNL1       -0.1583
      7 C          60.4627   95.4523   -1.3054 C.3     1  UNL1        0.0237
      8 C          59.0176   95.7441   -1.0287 C.3     1  UNL1        0.0019
      9 C          60.0704   96.7437   -0.6508 C.3     1  UNL1        0.0019
     10 C          60.3382   94.0991   -1.9406 C.3     1  UNL1        0.0866
     11 C          59.6712   93.9562   -3.2765 C.2     1  UNL1        0.2257
     12 O          60.2791   94.5943   -4.4903 O.2     1  UNL1       -0.2749
     13 N          58.3964   93.1753   -3.3987 N.am    1  UNL1       -0.2787
     14 C          57.6195   92.9475   -4.6614 C.3     1  UNL1        0.0935
     15 C          56.4176   92.1164   -4.3226 C.3     1  UNL1        0.0233
     16 C          56.4517   91.8305   -2.8506 C.3     1  UNL1        0.0241
     17 C          57.6747   92.4849   -2.2795 C.3     1  UNL1        0.1046
     18 C          58.1011   92.4544   -0.8417 C.3     1  UNL1        0.1568
     19 O          59.2250   91.5588   -0.4116 O.3     1  UNL1       -0.3802
     20 H          58.9604   90.6322   -0.5221 H       1  UNL1        0.2105
     21 S          62.2036   94.1987    0.7917 S.O2    1  UNL1        0.0632
     22 O          62.1480   95.4249    1.6538 O.2     1  UNL1       -0.1528
     23 O          62.1176   92.9527    0.2793 O.2     1  UNL1       -0.1528
     24 C          61.5857   93.3939    1.8964 C.ar    1  UNL1        0.1222
     25 C          60.1470   93.6059    2.2645 C.ar    1  UNL1        0.0208
     26 C          59.5291   92.8011    3.3692 C.ar    1  UNL1        0.0128
     27 C          60.3498   91.7843    4.1059 C.ar    1  UNL1        0.0578
     28 CL         59.7319   90.9796    5.2106 Cl      1  UNL1       -0.0822
     29 C          61.7884   91.5724    3.7379 C.ar    1  UNL1        0.0128
     30 C          62.4064   92.3772    2.6331 C.ar    1  UNL1        0.0208
     31 C          65.5594   93.1076    0.5723 C.3     1  UNL1        0.0015
     32 C          65.1803   94.5549    0.6793 C.3     1  UNL1        0.0177
@<TRIPOS>BOND
     1    31    32    1
     2     1    32    1
     3     1     2    1
     4     2     3    1
     5     3     4    1
     6     4     5    1
     7     5     7    1
     8     7    10    1
     9    10    11    1
    10    11    12    2
    11    11    13   am
    12    13    14    1
    13    14    15    1
    14    15    16    1
    15    16    17    1
    16    17    18    1
    17    18    19    1
    18     7     8    1
    19     8     9    1
    20     5     6    1
    21     6    21    1
    22    21    22    2
    23    21    23    2
    24    21    24    1
    25    24    25   ar
    26    25    26   ar
    27    26    27   ar
    28    27    28    1
    29    27    29   ar
    30    29    30   ar
    31     6     1    1
    32    30    24   ar
    33     9     7    1
    34    17    13    1
    35    19    20    1
@<TRIPOS>MOLECULE
*****
 32 35 0 0 0
SMALL
GASTEIGER

@<TRIPOS>ATOM
      1 C          63.1119   85.7372   12.4662 C.3     1  UNL1        0.0795
      2 C          63.9297   85.3247   13.6541 C.3     1  UNL1        0.0178
      3 C          64.4745   86.3649   14.5873 C.3     1  UNL1        0.0029
      4 C          64.2016   87.8177   14.3328 C.3     1  UNL1        0.0178
      5 C          63.3838   88.2302   13.1449 C.3     1  UNL1        0.0799
      6 N          62.8390   87.1900   12.2116 N.3     1  UNL1       -0.1583
      7 C          63.1109   89.6831   12.8903 C.3     1  UNL1        0.0237
      8 C          62.3758   90.9331   12.5066 C.3     1  UNL1        0.0019
      9 C          61.6854   89.6036   12.4301 C.3     1  UNL1        0.0019
     10 C          64.4415   90.2671   13.2621 C.3     1  UNL1        0.0866
     11 C          64.6334   90.8986   14.6092 C.2     1  UNL1        0.2257
     12 O          63.6422   90.6425   15.7055 O.2     1  UNL1       -0.2749
     13 N          65.8163   91.7861   14.8598 N.am    1  UNL1       -0.2787
     14 C          66.1383   92.4832   16.1484 C.3     1  UNL1        0.0935
     15 C          67.4060   93.2603   15.9508 C.3     1  UNL1        0.0233
     16 C          67.8674   93.0436   14.5402 C.3     1  UNL1        0.0241
     17 C          66.8850   92.1325   13.8658 C.3     1  UNL1        0.1046
     18 C          66.9583   91.6521   12.4467 C.3     1  UNL1        0.1568
     19 O          68.1222   92.0390   11.5832 O.3     1  UNL1       -0.3802
     20 H          68.1068   92.9966   11.4297 H       1  UNL1        0.2105
     21 S          62.0212   87.6026   11.0237 S.O2    1  UNL1        0.0632
     22 O          60.7704   87.1908   11.7419 O.2     1  UNL1       -0.1528
     23 O          62.9355   88.0521   10.1380 O.2     1  UNL1       -0.1528
     24 C          61.2034   88.0152    9.8359 C.ar    1  UNL1        0.1222
     25 C          61.0268   89.4700    9.5156 C.ar    1  UNL1        0.0208
     26 C          60.2091   89.8825    8.3278 C.ar    1  UNL1        0.0128
     27 C          59.5678   88.8404    7.4602 C.ar    1  UNL1        0.0578
     28 CL         58.7500   89.2530    6.2724 Cl      1  UNL1       -0.0822
     29 C          59.7443   87.3857    7.7804 C.ar    1  UNL1        0.0128
     30 C          60.5622   86.9730    8.9683 C.ar    1  UNL1        0.0208
     31 C          63.5049   83.8188   10.7588 C.3     1  UNL1        0.0015
     32 C          62.5671   84.6969   11.5329 C.3     1  UNL1        0.0177
@<TRIPOS>BOND
     1    31    32    1
     2     1    32    1
     3     1     2    1
     4     2     3    1
     5     3     4    1
     6     4     5    1
     7     5     7    1
     8     7    10    1
     9    10    11    1
    10    11    12    2
    11    11    13   am
    12    13    14    1
    13    14    15    1
    14    15    16    1
    15    16    17    1
    16    17    18    1
    17    18    19    1
    18     7     8    1
    19     8     9    1
    20     5     6    1
    21     6    21    1
    22    21    22    2
    23    21    23    2
    24    21    24    1
    25    24    25   ar
    26    25    26   ar
    27    26    27   ar
    28    27    28    1
    29    27    29   ar
    30    29    30   ar
    31     6     1    1
    32    30    24   ar
    33     9     7    1
    34    17    13    1
    35    19    20    1
@<TRIPOS>MOLECULE
*****
 32 35 0 0 0
SMALL
GASTEIGER

@<TRIPOS>ATOM
      1 C          64.1028   95.0308   -0.1742 C.3     1  UNL1        0.0795
      2 C          64.6923   95.8374   -1.2930 C.3     1  UNL1        0.0178
      3 C          63.8056   96.3805   -2.3742 C.3     1  UNL1        0.0029
      4 C          62.3295   96.1169   -2.3366 C.3     1  UNL1        0.0178
      5 C          61.7400   95.3103   -1.2178 C.3     1  UNL1        0.0799
      6 N          62.6266   94.7673   -0.1366 N.3     1  UNL1       -0.1583
      7 C          60.2637   95.0467   -1.1801 C.3     1  UNL1        0.0237
      8 C          58.8110   95.2094   -0.8440 C.3     1  UNL1        0.0019
      9 C          59.8185   96.1828   -0.3076 C.3     1  UNL1        0.0019
     10 C          60.1964   93.8192   -2.0395 C.3     1  UNL1        0.0866
     11 C          59.0550   92.8581   -1.8862 C.2     1  UNL1        0.2257
     12 O          58.8979   92.0767   -0.6154 O.2     1  UNL1       -0.2749
     13 N          58.0706   92.6784   -3.0036 N.am    1  UNL1       -0.2787
     14 C          56.8855   91.7589   -2.9953 C.3     1  UNL1        0.0935
     15 C          56.1810   91.8988   -4.3122 C.3     1  UNL1        0.0233
     16 C          56.9307   92.9048   -5.1343 C.3     1  UNL1        0.0241
     17 C          58.0985   93.3866   -4.3256 C.3     1  UNL1        0.1046
     18 C          59.1157   94.3989   -4.7622 C.3     1  UNL1        0.1568
     19 O          58.8527   95.8618   -4.5601 O.3     1  UNL1       -0.3802
     20 H          58.1040   96.1351   -5.1130 H       1  UNL1        0.2105
     21 S          62.0370   93.9606    0.9823 S.O2    1  UNL1        0.0632
     22 O          61.8678   95.2105    1.7941 O.2     1  UNL1       -0.1528
     23 O          62.0564   92.6935    0.5169 O.2     1  UNL1       -0.1528
     24 C          61.4474   93.1541    2.1011 C.ar    1  UNL1        0.1222
     25 C          62.2984   92.1664    2.8431 C.ar    1  UNL1        0.0208
     26 C          61.7088   91.3599    3.9619 C.ar    1  UNL1        0.0128
     27 C          60.2683   91.5409    4.3389 C.ar    1  UNL1        0.0578
     28 CL         59.6787   90.7344    5.4577 Cl      1  UNL1       -0.0822
     29 C          59.4173   92.5286    3.5970 C.ar    1  UNL1        0.0128
     30 C          60.0069   93.3352    2.4781 C.ar    1  UNL1        0.0208
     31 C          65.6032   93.1270    0.7607 C.3     1  UNL1        0.0015
     32 C          64.9894   94.4878    0.9070 C.3     1  UNL1        0.0177
@<TRIPOS>BOND
     1    31    32    1
     2     1    32    1
     3     1     2    1
     4     2     3    1
     5     3     4    1
     6     4     5    1
     7     5     7    1
     8     7    10    1
     9    10    11    1
    10    11    12    2
    11    11    13   am
    12    13    14    1
    13    14    15    1
    14    15    16    1
    15    16    17    1
    16    17    18    1
    17    18    19    1
    18     7     8    1
    19     8     9    1
    20     5     6    1
    21     6    21    1
    22    21    22    2
    23    21    23    2
    24    21    24    1
    25    24    25   ar
    26    25    26   ar
    27    26    27   ar
    28    27    28    1
    29    27    29   ar
    30    29    30   ar
    31     6     1    1
    32    30    24   ar
    33     9     7    1
    34    17    13    1
    35    19    20    1
@<TRIPOS>MOLECULE
*****
 32 35 0 0 0
SMALL
GASTEIGER

@<TRIPOS>ATOM
      1 C          64.5688   95.7650    0.7563 C.3     1  UNL1        0.0795
      2 C          65.3260   96.6137   -0.2216 C.3     1  UNL1        0.0178
      3 C          64.9048   96.6571   -1.6606 C.3     1  UNL1        0.0029
      4 C          63.7263   95.8518   -2.1217 C.3     1  UNL1        0.0178
      5 C          62.9691   95.0031   -1.1438 C.3     1  UNL1        0.0799
      6 N          63.3903   94.9597    0.2952 N.3     1  UNL1       -0.1583
      7 C          61.7905   94.1978   -1.6049 C.3     1  UNL1        0.0237
      8 C          60.9968   93.0569   -2.1690 C.3     1  UNL1        0.0019
      9 C          62.4893   92.9516   -2.0617 C.3     1  UNL1        0.0019
     10 C          60.6826   95.1644   -1.3082 C.3     1  UNL1        0.0866
     11 C          59.8048   95.6627   -2.4179 C.2     1  UNL1        0.2257
     12 O          60.3850   96.5132   -3.5088 O.2     1  UNL1       -0.2749
     13 N          58.3469   95.3105   -2.4367 N.am    1  UNL1       -0.2787
     14 C          57.3509   95.7334   -3.4756 C.3     1  UNL1        0.0935
     15 C          56.0175   95.1578   -3.1008 C.3     1  UNL1        0.0233
     16 C          56.1892   94.3792   -1.8304 C.3     1  UNL1        0.0241
     17 C          57.6289   94.4735   -1.4199 C.3     1  UNL1        0.1046
     18 C          58.2428   93.8418   -0.2058 C.3     1  UNL1        0.1568
     19 O          58.1888   92.3535   -0.0262 O.3     1  UNL1       -0.3802
     20 H          57.2673   92.0756    0.0946 H       1  UNL1        0.2105
     21 S          62.6330   94.1110    1.2730 S.O2    1  UNL1        0.0632
     22 O          63.6587   93.0265    1.1260 O.2     1  UNL1       -0.1528
     23 O          61.5724   94.8733    1.6144 O.2     1  UNL1       -0.1528
     24 C          61.8757   93.2623    2.2509 C.ar    1  UNL1        0.1222
     25 C          60.4431   93.5770    2.5651 C.ar    1  UNL1        0.0208
     26 C          59.6858   92.7282    3.5429 C.ar    1  UNL1        0.0128
     27 C          60.3611   91.5648    4.2066 C.ar    1  UNL1        0.0578
     28 CL         59.6039   90.7161    5.1844 Cl      1  UNL1       -0.0822
     29 C          61.7937   91.2501    3.8924 C.ar    1  UNL1        0.0128
     30 C          62.5510   92.0988    2.9145 C.ar    1  UNL1        0.0208
     31 C          65.7776   96.8560    2.7808 C.3     1  UNL1        0.0015
     32 C          64.9900   95.7216    2.1953 C.3     1  UNL1        0.0177
@<TRIPOS>BOND
     1    31    32    1
     2     1    32    1
     3     1     2    1
     4     2     3    1
     5     3     4    1
     6     4     5    1
     7     5     7    1
     8     7    10    1
     9    10    11    1
    10    11    12    2
    11    11    13   am
    12    13    14    1
    13    14    15    1
    14    15    16    1
    15    16    17    1
    16    17    18    1
    17    18    19    1
    18     7     8    1
    19     8     9    1
    20     5     6    1
    21     6    21    1
    22    21    22    2
    23    21    23    2
    24    21    24    1
    25    24    25   ar
    26    25    26   ar
    27    26    27   ar
    28    27    28    1
    29    27    29   ar
    30    29    30   ar
    31     6     1    1
    32    30    24   ar
    33     9     7    1
    34    17    13    1
    35    19    20    1
@<TRIPOS>MOLECULE
*****
 32 35 0 0 0
SMALL
GASTEIGER

@<TRIPOS>ATOM
      1 C          63.4787   89.1375   13.1702 C.3     1  UNL1        0.0795
      2 C          64.3101   88.9069   14.3972 C.3     1  UNL1        0.0178
      3 C          64.6299   87.5081   14.8345 C.3     1  UNL1        0.0029
      4 C          64.1182   86.3400   14.0448 C.3     1  UNL1        0.0178
      5 C          63.2868   86.5706   12.8179 C.3     1  UNL1        0.0799
      6 N          62.9670   87.9694   12.3806 N.3     1  UNL1       -0.1583
      7 C          62.7751   85.4024   12.0281 C.3     1  UNL1        0.0237
      8 C          61.8609   84.5611   11.1875 C.3     1  UNL1        0.0019
      9 C          61.4385   85.9379   11.6074 C.3     1  UNL1        0.0019
     10 C          63.9339   84.4614   12.1747 C.3     1  UNL1        0.0866
     11 C          63.8752   83.0971   11.5539 C.2     1  UNL1        0.2257
     12 O          64.4845   82.8607   10.2037 O.2     1  UNL1       -0.2749
     13 N          63.2074   81.9693   12.2832 N.am    1  UNL1       -0.2787
     14 C          63.0720   80.5587   11.7913 C.3     1  UNL1        0.0935
     15 C          62.3385   79.7717   12.8366 C.3     1  UNL1        0.0233
     16 C          62.0206   80.6958   13.9745 C.3     1  UNL1        0.0241
     17 C          62.5576   82.0540   13.6325 C.3     1  UNL1        0.1046
     18 C          62.4617   83.2815   14.4894 C.3     1  UNL1        0.1568
     19 O          62.8811   83.2262   15.9285 O.3     1  UNL1       -0.3802
     20 H          62.2827   82.6398   16.4174 H       1  UNL1        0.2105
     21 S          62.1356   88.2000   11.1535 S.O2    1  UNL1        0.0632
     22 O          60.9423   88.4865   12.0160 O.2     1  UNL1       -0.1528
     23 O          62.9966   87.9999   10.1332 O.2     1  UNL1       -0.1528
     24 C          61.3041   88.4306    9.9266 C.ar    1  UNL1        0.1222
     25 C          60.7801   89.8028    9.6227 C.ar    1  UNL1        0.0208
     26 C          59.9486   90.0334    8.3957 C.ar    1  UNL1        0.0128
     27 C          59.6411   88.8918    7.4726 C.ar    1  UNL1        0.0578
     28 CL         58.8097   89.1224    6.2457 Cl      1  UNL1       -0.0822
     29 C          60.1651   87.5196    7.7765 C.ar    1  UNL1        0.0128
     30 C          60.9966   87.2889    9.0035 C.ar    1  UNL1        0.0208
     31 C          64.2447   91.4206   12.1953 C.3     1  UNL1        0.0015
     32 C          63.1590   90.5363   12.7329 C.3     1  UNL1        0.0177
@<TRIPOS>BOND
     1    31    32    1
     2     1    32    1
     3     1     2    1
     4     2     3    1
     5     3     4    1
     6     4     5    1
     7     5     7    1
     8     7    10    1
     9    10    11    1
    10    11    12    2
    11    11    13   am
    12    13    14    1
    13    14    15    1
    14    15    16    1
    15    16    17    1
    16    17    18    1
    17    18    19    1
    18     7     8    1
    19     8     9    1
    20     5     6    1
    21     6    21    1
    22    21    22    2
    23    21    23    2
    24    21    24    1
    25    24    25   ar
    26    25    26   ar
    27    26    27   ar
    28    27    28    1
    29    27    29   ar
    30    29    30   ar
    31     6     1    1
    32    30    24   ar
    33     9     7    1
    34    17    13    1
    35    19    20    1
