@<TRIPOS>MOLECULE
*****
 38 43 0 0 0
SMALL
GASTEIGER

@<TRIPOS>ATOM
      1 C          62.3850   88.5978   11.0043 C.3     1  UNL1        0.1429
      2 O          61.6138   87.9904    9.8702 O.3     1  UNL1       -0.3818
      3 C          62.3852   89.8239   10.1402 C.3     1  UNL1        0.1713
      4 O          63.1228   90.9061   10.8714 O.3     1  UNL1       -0.3497
      5 C          63.5784   90.3490   12.1874 C.3     1  UNL1        0.1614
      6 C          64.3158   90.6735   13.4526 C.3     1  UNL1        0.1143
      7 C          64.3157   89.4475   14.3168 C.3     1  UNL1        0.1604
      8 O          63.5781   88.3651   13.5856 O.3     1  UNL1       -0.3497
      9 C          63.1225   88.9223   12.2696 C.3     1  UNL1        0.1703
     10 H          61.4971   88.6500    9.1686 H       1  UNL1        0.2104
     11 N          64.9433   91.9925   13.7939 N.3     1  UNL1       -0.2895
     12 H          64.9059   92.0825   14.8092 H       1  UNL1        0.1237
     13 C          66.3582   92.2779   13.3858 C.3     1  UNL1        0.1153
     14 C          66.6393   92.9549   12.0771 C.ar    1  UNL1        0.0782
     15 C          65.9293   94.2282   11.7237 C.ar    1  UNL1        0.0562
     16 C          66.2104   94.9052   10.4150 C.ar    1  UNL1        0.1752
     17 C          67.2014   94.3090    9.4597 C.ar    1  UNL1        0.1914
     18 C          67.9113   93.0358    9.8132 C.ar    1  UNL1        0.1384
     19 N          67.6302   92.3588   11.1219 N.ar    1  UNL1       -0.2434
     20 O          67.4824   94.9860    8.1510 O.3     1  UNL1       -0.4668
     21 C          66.7724   96.2593    7.7976 C.3     1  UNL1        0.2527
     22 C          65.7815   96.8554    8.7528 C.3     1  UNL1        0.2526
     23 O          65.5004   96.1784   10.0616 O.3     1  UNL1       -0.4683
     24 C          62.2236   87.2448   11.6314 C.3     1  UNL1        0.0367
     25 C          62.0177   86.0368   10.7661 C.3     1  UNL1        0.0328
     26 C          62.5857   84.4550   14.9404 C.ar    1  UNL1        0.2250
     27 C          63.4055   83.2198   15.1693 C.ar    1  UNL1        0.0593
     28 C          64.0359   82.5120   14.0067 C.ar    1  UNL1        0.0254
     29 C          63.8466   83.0393   12.6153 C.ar    1  UNL1        0.0990
     30 N          64.4770   82.3314   11.4528 N.ar    1  UNL1       -0.2400
     31 C          64.2877   82.8587   10.0614 C.ar    1  UNL1        0.1281
     32 C          63.4679   84.0939    9.8324 C.ar    1  UNL1        0.1566
     33 F          63.2785   84.6212    8.4410 F       1  UNL1       -0.2028
     34 C          62.8374   84.8017   10.9950 C.ar    1  UNL1        0.0261
     35 C          63.0268   84.2744   12.3864 C.ar    1  UNL1        0.1002
     36 N          62.3964   84.9822   13.5490 N.ar    1  UNL1       -0.2104
     37 C          62.8022   85.9818   17.0313 C.3     1  UNL1        0.2542
     38 O          61.9553   85.1628   16.1030 O.3     1  UNL1       -0.4561
@<TRIPOS>BOND
     1    37    38    1
     2    38    26    1
     3    26    27   ar
     4    27    28   ar
     5    28    29   ar
     6    29    30   ar
     7    30    31   ar
     8    31    32   ar
     9    32    33    1
    10    32    34   ar
    11    34    25    1
    12    25    24    1
    13    24     1    1
    14     1     2    1
    15     1     3    1
    16     3     4    1
    17     5     4    1
    18     5     6    1
    19     6    11    1
    20    11    13    1
    21    13    14    1
    22    14    15   ar
    23    15    16   ar
    24    16    17   ar
    25    17    18   ar
    26    18    19   ar
    27    17    20    1
    28    20    21    1
    29    21    22    1
    30    22    23    1
    31     6     7    1
    32     7     8    1
    33     9     8    1
    34    34    35   ar
    35    35    36   ar
    36    36    26   ar
    37    35    29   ar
    38     9     1    1
    39     9     5    1
    40    19    14   ar
    41    23    16    1
    42     2    10    1
    43    11    12    1
@<TRIPOS>MOLECULE
*****
 38 43 0 0 0
SMALL
GASTEIGER

@<TRIPOS>ATOM
      1 C          63.3080   87.6984   16.4975 C.3     1  UNL1        0.1429
      2 O          62.8057   88.9498   17.1545 O.3     1  UNL1       -0.3818
      3 C          62.3140   87.0180   17.3915 C.3     1  UNL1        0.1713
      4 O          62.3879   85.5431   17.1288 O.3     1  UNL1       -0.3497
      5 C          63.4274   85.3118   16.0725 C.3     1  UNL1        0.1614
      6 C          64.1155   84.2573   15.2574 C.3     1  UNL1        0.1143
      7 C          65.1095   84.9377   14.3634 C.3     1  UNL1        0.1604
      8 O          65.0357   86.4127   14.6261 O.3     1  UNL1       -0.3497
      9 C          63.9961   86.6439   15.6824 C.3     1  UNL1        0.1703
     10 H          62.1203   88.7223   17.8021 H       1  UNL1        0.2104
     11 N          63.8554   82.7816   15.3243 N.3     1  UNL1       -0.2895
     12 H          63.2016   82.6324   16.0929 H       1  UNL1        0.1237
     13 C          63.2939   82.0642   14.1327 C.3     1  UNL1        0.1153
     14 C          63.3299   82.7132   12.7809 C.ar    1  UNL1        0.0782
     15 C          62.3868   83.8354   12.4624 C.ar    1  UNL1        0.0562
     16 C          62.4229   84.4845   11.1106 C.ar    1  UNL1        0.1752
     17 C          63.4020   84.0115   10.0773 C.ar    1  UNL1        0.1914
     18 C          64.3450   82.8894   10.3958 C.ar    1  UNL1        0.1384
     19 N          64.3090   82.2402   11.7477 N.ar    1  UNL1       -0.2434
     20 O          63.4380   84.6605    8.7255 O.3     1  UNL1       -0.4668
     21 C          62.4949   85.7827    8.4069 C.3     1  UNL1        0.2527
     22 C          61.5159   86.2557    9.4401 C.3     1  UNL1        0.2526
     23 O          61.4798   85.6066   10.7920 O.3     1  UNL1       -0.4683
     24 C          64.1969   88.6403   15.7410 C.3     1  UNL1        0.0367
     25 C          63.7329   90.0360   15.4464 C.3     1  UNL1        0.0328
     26 C          61.3781   89.5238   11.6461 C.ar    1  UNL1        0.2250
     27 C          61.8225   90.2125   10.3899 C.ar    1  UNL1        0.0593
     28 C          63.0518   91.0720   10.4004 C.ar    1  UNL1        0.0254
     29 C          63.8367   91.2427   11.6671 C.ar    1  UNL1        0.0990
     30 N          65.0661   92.1021   11.6776 N.ar    1  UNL1       -0.2400
     31 C          65.8510   92.2729   12.9444 C.ar    1  UNL1        0.1281
     32 C          65.4066   91.5842   14.2007 C.ar    1  UNL1        0.1566
     33 F          66.1915   91.7549   15.4675 F       1  UNL1       -0.2028
     34 C          64.1773   90.7247   14.1902 C.ar    1  UNL1        0.0261
     35 C          63.3923   90.5540   12.9234 C.ar    1  UNL1        0.1002
     36 N          62.1630   89.6946   12.9128 N.ar    1  UNL1       -0.2104
     37 C          58.9325   89.0856   12.4058 C.3     1  UNL1        0.2542
     38 O          60.1488   88.6644   11.6356 O.3     1  UNL1       -0.4561
@<TRIPOS>BOND
     1    37    38    1
     2    38    26    1
     3    26    27   ar
     4    27    28   ar
     5    28    29   ar
     6    29    30   ar
     7    30    31   ar
     8    31    32   ar
     9    32    33    1
    10    32    34   ar
    11    34    25    1
    12    25    24    1
    13    24     1    1
    14     1     2    1
    15     1     3    1
    16     3     4    1
    17     5     4    1
    18     5     6    1
    19     6    11    1
    20    11    13    1
    21    13    14    1
    22    14    15   ar
    23    15    16   ar
    24    16    17   ar
    25    17    18   ar
    26    18    19   ar
    27    17    20    1
    28    20    21    1
    29    21    22    1
    30    22    23    1
    31     6     7    1
    32     7     8    1
    33     9     8    1
    34    34    35   ar
    35    35    36   ar
    36    36    26   ar
    37    35    29   ar
    38     9     1    1
    39     9     5    1
    40    19    14   ar
    41    23    16    1
    42     2    10    1
    43    11    12    1
@<TRIPOS>MOLECULE
*****
 38 43 0 0 0
SMALL
GASTEIGER

@<TRIPOS>ATOM
      1 C          63.4626   85.9394   15.9532 C.3     1  UNL1        0.1429
      2 O          63.2780   84.5272   16.4239 O.3     1  UNL1       -0.3818
      3 C          62.9924   86.2942   17.3326 C.3     1  UNL1        0.1713
      4 O          62.9766   87.7897   17.4466 O.3     1  UNL1       -0.3497
      5 C          63.4371   88.3593   16.1375 C.3     1  UNL1        0.1614
      6 C          63.7119   89.6355   15.3989 C.3     1  UNL1        0.1143
      7 C          64.1821   89.2807   14.0194 C.3     1  UNL1        0.1604
      8 O          64.1979   87.7851   13.9055 O.3     1  UNL1       -0.3497
      9 C          63.7374   87.2156   15.2145 C.3     1  UNL1        0.1703
     10 H          62.9618   84.5308   17.3409 H       1  UNL1        0.2104
     11 N          63.5457   91.0230   15.9440 N.3     1  UNL1       -0.2895
     12 H          63.2206   90.9246   16.9058 H       1  UNL1        0.1237
     13 C          64.7156   91.9613   15.9763 C.3     1  UNL1        0.1153
     14 C          65.6779   91.9999   14.8264 C.ar    1  UNL1        0.0782
     15 C          65.2131   92.4542   13.4745 C.ar    1  UNL1        0.0562
     16 C          66.1755   92.4929   12.3245 C.ar    1  UNL1        0.1752
     17 C          67.6026   92.0772   12.5264 C.ar    1  UNL1        0.1914
     18 C          68.0673   91.6229   13.8783 C.ar    1  UNL1        0.1384
     19 N          67.1049   91.5842   15.0283 N.ar    1  UNL1       -0.2434
     20 O          68.5649   92.1158   11.3765 O.3     1  UNL1       -0.4668
     21 C          68.1001   92.5702   10.0245 C.3     1  UNL1        0.2527
     22 C          66.6732   92.9858    9.8226 C.3     1  UNL1        0.2526
     23 O          65.7108   92.9472   10.9726 O.3     1  UNL1       -0.4683
     24 C          63.8942   85.2893   14.6721 C.3     1  UNL1        0.0367
     25 C          62.9030   84.5193   13.8507 C.3     1  UNL1        0.0328
     26 C          61.0284   87.3575   10.9045 C.ar    1  UNL1        0.2250
     27 C          61.2570   87.1710    9.4338 C.ar    1  UNL1        0.0593
     28 C          62.1106   86.0385    8.9452 C.ar    1  UNL1        0.0254
     29 C          62.7355   85.0924    9.9272 C.ar    1  UNL1        0.0990
     30 N          63.5890   83.9599    9.4386 N.ar    1  UNL1       -0.2400
     31 C          64.2139   83.0138   10.4206 C.ar    1  UNL1        0.1281
     32 C          63.9853   83.2003   11.8914 C.ar    1  UNL1        0.1566
     33 F          64.6101   82.2542   12.8734 F       1  UNL1       -0.2028
     34 C          63.1317   84.3328   12.3800 C.ar    1  UNL1        0.0261
     35 C          62.5068   85.2789   11.3979 C.ar    1  UNL1        0.1002
     36 N          61.6533   86.4115   11.8865 N.ar    1  UNL1       -0.2104
     37 C          60.1036   89.7675   10.6102 C.3     1  UNL1        0.2542
     38 O          60.1748   88.4901   11.3931 O.3     1  UNL1       -0.4561
@<TRIPOS>BOND
     1    37    38    1
     2    38    26    1
     3    26    27   ar
     4    27    28   ar
     5    28    29   ar
     6    29    30   ar
     7    30    31   ar
     8    31    32   ar
     9    32    33    1
    10    32    34   ar
    11    34    25    1
    12    25    24    1
    13    24     1    1
    14     1     2    1
    15     1     3    1
    16     3     4    1
    17     5     4    1
    18     5     6    1
    19     6    11    1
    20    11    13    1
    21    13    14    1
    22    14    15   ar
    23    15    16   ar
    24    16    17   ar
    25    17    18   ar
    26    18    19   ar
    27    17    20    1
    28    20    21    1
    29    21    22    1
    30    22    23    1
    31     6     7    1
    32     7     8    1
    33     9     8    1
    34    34    35   ar
    35    35    36   ar
    36    36    26   ar
    37    35    29   ar
    38     9     1    1
    39     9     5    1
    40    19    14   ar
    41    23    16    1
    42     2    10    1
    43    11    12    1
@<TRIPOS>MOLECULE
*****
 38 43 0 0 0
SMALL
GASTEIGER

@<TRIPOS>ATOM
      1 C          63.0234   89.2611   11.6792 C.3     1  UNL1        0.1429
      2 O          62.5145   88.8365   10.3336 O.3     1  UNL1       -0.3818
      3 C          63.1956   90.5964   11.0180 C.3     1  UNL1        0.1713
      4 O          63.7527   91.5485   12.0344 O.3     1  UNL1       -0.3497
      5 C          63.9248   90.8017   13.3238 C.3     1  UNL1        0.1614
      6 C          64.3755   90.9285   14.7488 C.3     1  UNL1        0.1143
      7 C          64.2033   89.5932   15.4101 C.3     1  UNL1        0.1604
      8 O          63.6462   88.6410   14.3936 O.3     1  UNL1       -0.3497
      9 C          63.4741   89.3879   13.1043 C.3     1  UNL1        0.1703
     10 H          62.5429   89.5908    9.7244 H       1  UNL1        0.2104
     11 N          64.9053   92.1723   15.3986 N.3     1  UNL1       -0.2895
     12 H          64.9332   91.9913   16.4020 H       1  UNL1        0.1237
     13 C          66.2559   92.7012   15.0163 C.3     1  UNL1        0.1153
     14 C          66.5093   93.1667   13.6130 C.ar    1  UNL1        0.0782
     15 C          67.2497   92.2841   12.6523 C.ar    1  UNL1        0.0562
     16 C          67.5031   92.7496   11.2490 C.ar    1  UNL1        0.1752
     17 C          67.0162   94.0976   10.8064 C.ar    1  UNL1        0.1914
     18 C          66.2758   94.9801   11.7672 C.ar    1  UNL1        0.1384
     19 N          66.0224   94.5146   13.1705 N.ar    1  UNL1       -0.2434
     20 O          67.2696   94.5630    9.4032 O.3     1  UNL1       -0.4668
     21 C          68.0100   93.6804    8.4425 C.3     1  UNL1        0.2527
     22 C          68.4969   92.3325    8.8850 C.3     1  UNL1        0.2526
     23 O          68.2435   91.8670   10.2883 O.3     1  UNL1       -0.4683
     24 C          62.7448   87.8370   12.0592 C.3     1  UNL1        0.0367
     25 C          62.0781   86.9163   11.0804 C.3     1  UNL1        0.0328
     26 C          62.6213   84.0360   14.4949 C.ar    1  UNL1        0.2250
     27 C          63.1902   82.6714   14.2417 C.ar    1  UNL1        0.0593
     28 C          63.5779   82.2668   12.8503 C.ar    1  UNL1        0.0254
     29 C          63.3968   83.2269   11.7121 C.ar    1  UNL1        0.0990
     30 N          63.7846   82.8223   10.3208 N.ar    1  UNL1       -0.2400
     31 C          63.6035   83.7824    9.1826 C.ar    1  UNL1        0.1281
     32 C          63.0347   85.1471    9.4358 C.ar    1  UNL1        0.1566
     33 F          62.8536   86.1071    8.2976 F       1  UNL1       -0.2028
     34 C          62.6469   85.5517   10.8272 C.ar    1  UNL1        0.0261
     35 C          62.8280   84.5915   11.9654 C.ar    1  UNL1        0.1002
     36 N          62.4403   84.9961   13.3568 N.ar    1  UNL1       -0.2104
     37 C          62.9747   85.5446   16.5804 C.3     1  UNL1        0.2542
     38 O          62.2336   84.4406   15.8863 O.3     1  UNL1       -0.4561
@<TRIPOS>BOND
     1    37    38    1
     2    38    26    1
     3    26    27   ar
     4    27    28   ar
     5    28    29   ar
     6    29    30   ar
     7    30    31   ar
     8    31    32   ar
     9    32    33    1
    10    32    34   ar
    11    34    25    1
    12    25    24    1
    13    24     1    1
    14     1     2    1
    15     1     3    1
    16     3     4    1
    17     5     4    1
    18     5     6    1
    19     6    11    1
    20    11    13    1
    21    13    14    1
    22    14    15   ar
    23    15    16   ar
    24    16    17   ar
    25    17    18   ar
    26    18    19   ar
    27    17    20    1
    28    20    21    1
    29    21    22    1
    30    22    23    1
    31     6     7    1
    32     7     8    1
    33     9     8    1
    34    34    35   ar
    35    35    36   ar
    36    36    26   ar
    37    35    29   ar
    38     9     1    1
    39     9     5    1
    40    19    14   ar
    41    23    16    1
    42     2    10    1
    43    11    12    1
@<TRIPOS>MOLECULE
*****
 38 43 0 0 0
SMALL
GASTEIGER

@<TRIPOS>ATOM
      1 C          60.7996   88.4647   10.6476 C.3     1  UNL1        0.1429
      2 O          61.3793   88.7008   12.0108 O.3     1  UNL1       -0.3818
      3 C          60.6109   89.9528   10.6427 C.3     1  UNL1        0.1713
      4 O          59.9793   90.3356    9.3371 O.3     1  UNL1       -0.3497
      5 C          59.7778   89.0842    8.5351 C.3     1  UNL1        0.1614
      6 C          59.2629   88.5473    7.2325 C.3     1  UNL1        0.1143
      7 C          59.4517   87.0593    7.2374 C.3     1  UNL1        0.1604
      8 O          60.0832   86.6764    8.5430 O.3     1  UNL1       -0.3497
      9 C          60.2848   87.9279    9.3450 C.3     1  UNL1        0.1703
     10 H          61.3514   89.6488   12.2143 H       1  UNL1        0.2104
     11 N          58.6644   89.3565    6.1203 N.3     1  UNL1       -0.2895
     12 H          57.6566   89.2030    6.1539 H       1  UNL1        0.1237
     13 C          58.8750   90.8409    6.0754 C.3     1  UNL1        0.1153
     14 C          59.5637   91.4654    4.8982 C.ar    1  UNL1        0.0782
     15 C          61.0374   91.2679    4.7000 C.ar    1  UNL1        0.0562
     16 C          61.7260   91.8924    3.5228 C.ar    1  UNL1        0.1752
     17 C          60.9411   92.7144    2.5439 C.ar    1  UNL1        0.1914
     18 C          59.4674   92.9119    2.7422 C.ar    1  UNL1        0.1384
     19 N          58.7787   92.2873    3.9194 N.ar    1  UNL1       -0.2434
     20 O          61.6297   93.3389    1.3667 O.3     1  UNL1       -0.4668
     21 C          63.1034   93.1414    1.1684 C.3     1  UNL1        0.2527
     22 C          63.8884   92.3195    2.1472 C.3     1  UNL1        0.2526
     23 O          63.1997   91.6950    3.3245 O.3     1  UNL1       -0.4683
     24 C          61.1096   87.0260   10.9374 C.3     1  UNL1        0.0367
     25 C          62.5034   86.6205   11.3156 C.3     1  UNL1        0.0328
     26 C          62.4753   84.3285   15.1880 C.ar    1  UNL1        0.2250
     27 C          62.8562   82.8778   15.2037 C.ar    1  UNL1        0.0593
     28 C          63.2463   82.1910   13.9285 C.ar    1  UNL1        0.0254
     29 C          63.2557   82.9550   12.6377 C.ar    1  UNL1        0.0990
     30 N          63.6459   82.2682   11.3625 N.ar    1  UNL1       -0.2400
     31 C          63.6553   83.0322   10.0717 C.ar    1  UNL1        0.1281
     32 C          63.2744   84.4830   10.0560 C.ar    1  UNL1        0.1566
     33 F          63.2838   85.2470    8.7652 F       1  UNL1       -0.2028
     34 C          62.8842   85.1698   11.3312 C.ar    1  UNL1        0.0261
     35 C          62.8749   84.4057   12.6221 C.ar    1  UNL1        0.1002
     36 N          62.4847   85.0925   13.8972 N.ar    1  UNL1       -0.2104
     37 C          63.0055   86.0242   17.0837 C.3     1  UNL1        0.2542
     38 O          62.0851   85.0153   16.4632 O.3     1  UNL1       -0.4561
@<TRIPOS>BOND
     1    37    38    1
     2    38    26    1
     3    26    27   ar
     4    27    28   ar
     5    28    29   ar
     6    29    30   ar
     7    30    31   ar
     8    31    32   ar
     9    32    33    1
    10    32    34   ar
    11    34    25    1
    12    25    24    1
    13    24     1    1
    14     1     2    1
    15     1     3    1
    16     3     4    1
    17     5     4    1
    18     5     6    1
    19     6    11    1
    20    11    13    1
    21    13    14    1
    22    14    15   ar
    23    15    16   ar
    24    16    17   ar
    25    17    18   ar
    26    18    19   ar
    27    17    20    1
    28    20    21    1
    29    21    22    1
    30    22    23    1
    31     6     7    1
    32     7     8    1
    33     9     8    1
    34    34    35   ar
    35    35    36   ar
    36    36    26   ar
    37    35    29   ar
    38     9     1    1
    39     9     5    1
    40    19    14   ar
    41    23    16    1
    42     2    10    1
    43    11    12    1
@<TRIPOS>MOLECULE
*****
 38 43 0 0 0
SMALL
GASTEIGER

@<TRIPOS>ATOM
      1 C          63.2687   87.9429   16.4831 C.3     1  UNL1        0.1429
      2 O          62.7634   89.1709   17.1806 O.3     1  UNL1       -0.3818
      3 C          62.4664   87.2150   17.5206 C.3     1  UNL1        0.1713
      4 O          62.6215   85.7429   17.2779 O.3     1  UNL1       -0.3497
      5 C          63.5197   85.5610   16.0904 C.3     1  UNL1        0.1614
      6 C          64.1706   84.5388   15.2065 C.3     1  UNL1        0.1143
      7 C          64.9730   85.2667   14.1690 C.3     1  UNL1        0.1604
      8 O          64.8179   86.7389   14.4117 O.3     1  UNL1       -0.3497
      9 C          63.9197   86.9207   15.5992 C.3     1  UNL1        0.1703
     10 H          62.1950   88.9107   17.9223 H       1  UNL1        0.2104
     11 N          64.0419   83.0501   15.3370 N.3     1  UNL1       -0.2895
     12 H          63.4311   82.8762   16.1352 H       1  UNL1        0.1237
     13 C          63.5028   82.2409   14.1949 C.3     1  UNL1        0.1153
     14 C          63.4716   82.8225   12.8126 C.ar    1  UNL1        0.0782
     15 C          62.4966   83.9127   12.4795 C.ar    1  UNL1        0.0562
     16 C          62.4654   84.4944   11.0972 C.ar    1  UNL1        0.1752
     17 C          63.4091   83.9858   10.0480 C.ar    1  UNL1        0.1914
     18 C          64.3841   82.8957   10.3811 C.ar    1  UNL1        0.1384
     19 N          64.4153   82.3140   11.7635 N.ar    1  UNL1       -0.2434
     20 O          63.3780   84.5675    8.6657 O.3     1  UNL1       -0.4668
     21 C          62.4030   85.6577    8.3327 C.3     1  UNL1        0.2527
     22 C          61.4593   86.1662    9.3818 C.3     1  UNL1        0.2526
     23 O          61.4905   85.5846   10.7641 O.3     1  UNL1       -0.4683
     24 C          63.9654   88.9275   15.5915 C.3     1  UNL1        0.0367
     25 C          63.2081   90.0906   15.0224 C.3     1  UNL1        0.0328
     26 C          66.5749   92.9929   14.3214 C.ar    1  UNL1        0.2250
     27 C          66.8729   93.4746   12.9325 C.ar    1  UNL1        0.0593
     28 C          66.0486   92.9889   11.7773 C.ar    1  UNL1        0.0254
     29 C          64.9263   92.0215   12.0109 C.ar    1  UNL1        0.0990
     30 N          64.1020   91.5358   10.8556 N.ar    1  UNL1       -0.2400
     31 C          62.9798   90.5684   11.0893 C.ar    1  UNL1        0.1281
     32 C          62.6818   90.0867   12.4783 C.ar    1  UNL1        0.1566
     33 F          61.5595   89.1193   12.7119 F       1  UNL1       -0.2028
     34 C          63.5061   90.5723   13.6335 C.ar    1  UNL1        0.0261
     35 C          64.6284   91.5398   13.3998 C.ar    1  UNL1        0.1002
     36 N          65.4527   92.0255   14.5551 N.ar    1  UNL1       -0.2104
     37 C          68.2798   92.5218   16.2244 C.3     1  UNL1        0.2542
     38 O          67.3992   93.4786   15.4767 O.3     1  UNL1       -0.4561
@<TRIPOS>BOND
     1    37    38    1
     2    38    26    1
     3    26    27   ar
     4    27    28   ar
     5    28    29   ar
     6    29    30   ar
     7    30    31   ar
     8    31    32   ar
     9    32    33    1
    10    32    34   ar
    11    34    25    1
    12    25    24    1
    13    24     1    1
    14     1     2    1
    15     1     3    1
    16     3     4    1
    17     5     4    1
    18     5     6    1
    19     6    11    1
    20    11    13    1
    21    13    14    1
    22    14    15   ar
    23    15    16   ar
    24    16    17   ar
    25    17    18   ar
    26    18    19   ar
    27    17    20    1
    28    20    21    1
    29    21    22    1
    30    22    23    1
    31     6     7    1
    32     7     8    1
    33     9     8    1
    34    34    35   ar
    35    35    36   ar
    36    36    26   ar
    37    35    29   ar
    38     9     1    1
    39     9     5    1
    40    19    14   ar
    41    23    16    1
    42     2    10    1
    43    11    12    1
@<TRIPOS>MOLECULE
*****
 38 43 0 0 0
SMALL
GASTEIGER

@<TRIPOS>ATOM
      1 C          64.4632   84.2838   14.4845 C.3     1  UNL1        0.1429
      2 O          65.2394   83.3709   13.5822 O.3     1  UNL1       -0.3818
      3 C          65.6856   85.1489   14.4002 C.3     1  UNL1        0.1713
      4 O          65.4433   86.3757   15.2286 O.3     1  UNL1       -0.3497
      5 C          64.0711   86.2688   15.8249 C.3     1  UNL1        0.1614
      6 C          63.0732   86.9609   16.7053 C.3     1  UNL1        0.1143
      7 C          61.8508   86.0957   16.7896 C.3     1  UNL1        0.1604
      8 O          62.0931   84.8689   15.9612 O.3     1  UNL1       -0.3497
      9 C          63.4653   84.9759   15.3650 C.3     1  UNL1        0.1703
     10 H          66.1064   83.7630   13.3939 H       1  UNL1        0.2104
     11 N          63.2642   88.2856   17.3826 N.3     1  UNL1       -0.2895
     12 H          64.2703   88.4370   17.4547 H       1  UNL1        0.1237
     13 C          62.6816   89.5282   16.7774 C.3     1  UNL1        0.1153
     14 C          63.2681   90.0956   15.5188 C.ar    1  UNL1        0.0782
     15 C          64.2820   91.1985   15.5948 C.ar    1  UNL1        0.0562
     16 C          64.8686   91.7659   14.3362 C.ar    1  UNL1        0.1752
     17 C          64.4413   91.2305   13.0017 C.ar    1  UNL1        0.1914
     18 C          63.4275   90.1276   12.9259 C.ar    1  UNL1        0.1384
     19 N          62.8409   89.5602   14.1845 N.ar    1  UNL1       -0.2434
     20 O          65.0279   91.7978   11.7431 O.3     1  UNL1       -0.4668
     21 C          66.0418   92.9008   11.8191 C.3     1  UNL1        0.2527
     22 C          66.4690   93.4362   13.1534 C.3     1  UNL1        0.2526
     23 O          65.8824   92.8688   14.4120 O.3     1  UNL1       -0.4683
     24 C          63.4030   83.2278   14.3802 C.3     1  UNL1        0.0367
     25 C          62.3768   83.3006   13.2886 C.3     1  UNL1        0.0328
     26 C          61.2250   87.1072   11.1831 C.ar    1  UNL1        0.2250
     27 C          61.6540   87.3390    9.7647 C.ar    1  UNL1        0.0593
     28 C          62.4670   86.3020    9.0480 C.ar    1  UNL1        0.0254
     29 C          62.8509   85.0331    9.7497 C.ar    1  UNL1        0.0990
     30 N          63.6639   83.9961    9.0331 N.ar    1  UNL1       -0.2400
     31 C          64.0478   82.7272    9.7348 C.ar    1  UNL1        0.1281
     32 C          63.6188   82.4953   11.1534 C.ar    1  UNL1        0.1566
     33 F          64.0027   81.2265   11.8552 F       1  UNL1       -0.2028
     34 C          62.8058   83.5324   11.8701 C.ar    1  UNL1        0.0261
     35 C          62.4219   84.8013   11.1682 C.ar    1  UNL1        0.1002
     36 N          61.6089   85.8383   11.8849 N.ar    1  UNL1       -0.2104
     37 C          60.0919   89.4448   11.2246 C.3     1  UNL1        0.2542
     38 O          60.4120   88.1442   11.8998 O.3     1  UNL1       -0.4561
@<TRIPOS>BOND
     1    37    38    1
     2    38    26    1
     3    26    27   ar
     4    27    28   ar
     5    28    29   ar
     6    29    30   ar
     7    30    31   ar
     8    31    32   ar
     9    32    33    1
    10    32    34   ar
    11    34    25    1
    12    25    24    1
    13    24     1    1
    14     1     2    1
    15     1     3    1
    16     3     4    1
    17     5     4    1
    18     5     6    1
    19     6    11    1
    20    11    13    1
    21    13    14    1
    22    14    15   ar
    23    15    16   ar
    24    16    17   ar
    25    17    18   ar
    26    18    19   ar
    27    17    20    1
    28    20    21    1
    29    21    22    1
    30    22    23    1
    31     6     7    1
    32     7     8    1
    33     9     8    1
    34    34    35   ar
    35    35    36   ar
    36    36    26   ar
    37    35    29   ar
    38     9     1    1
    39     9     5    1
    40    19    14   ar
    41    23    16    1
    42     2    10    1
    43    11    12    1
@<TRIPOS>MOLECULE
*****
 38 43 0 0 0
SMALL
GASTEIGER

@<TRIPOS>ATOM
      1 C          61.2747   86.7858   10.0032 C.3     1  UNL1        0.1429
      2 O          60.6368   85.5956    9.3500 O.3     1  UNL1       -0.3818
      3 C          60.7922   87.5154    8.7846 C.3     1  UNL1        0.1713
      4 O          61.2049   88.9520    8.9109 O.3     1  UNL1       -0.3497
      5 C          61.9423   89.1103   10.2074 C.3     1  UNL1        0.1614
      6 C          62.6531   90.0959   11.0867 C.3     1  UNL1        0.1143
      7 C          63.1356   89.3663   12.3053 C.3     1  UNL1        0.1604
      8 O          62.7229   87.9296   12.1791 O.3     1  UNL1       -0.3497
      9 C          61.9855   87.7714   10.8825 C.3     1  UNL1        0.1703
     10 H          60.2445   85.8626    8.5041 H       1  UNL1        0.2104
     11 N          62.8474   91.5550   10.7982 N.3     1  UNL1       -0.2895
     12 H          62.6219   92.0575   11.6567 H       1  UNL1        0.1237
     13 C          64.1847   92.0575   10.3410 C.3     1  UNL1        0.1153
     14 C          65.3096   92.1967   11.3235 C.ar    1  UNL1        0.0782
     15 C          65.0133   92.3468   12.7863 C.ar    1  UNL1        0.0562
     16 C          66.1382   92.4860   13.7688 C.ar    1  UNL1        0.1752
     17 C          67.5592   92.4752   13.2886 C.ar    1  UNL1        0.1914
     18 C          67.8554   92.3251   11.8258 C.ar    1  UNL1        0.1384
     19 N          66.7305   92.1859   10.8432 N.ar    1  UNL1       -0.2434
     20 O          68.6841   92.6144   14.2711 O.3     1  UNL1       -0.4668
     21 C          68.3879   92.7644   15.7339 C.3     1  UNL1        0.2527
     22 C          66.9669   92.7753   16.2142 C.3     1  UNL1        0.2526
     23 O          65.8420   92.6360   15.2316 O.3     1  UNL1       -0.4683
     24 C          61.6238   85.8074   11.0852 C.3     1  UNL1        0.0367
     25 C          62.7614   84.8490   10.8913 C.3     1  UNL1        0.0328
     26 C          63.8446   86.2238   15.0370 C.ar    1  UNL1        0.2250
     27 C          64.1664   85.2167   16.1009 C.ar    1  UNL1        0.0593
     28 C          64.1272   83.7513   15.7830 C.ar    1  UNL1        0.0254
     29 C          63.7661   83.2930   14.4012 C.ar    1  UNL1        0.0990
     30 N          63.7269   81.8276   14.0833 N.ar    1  UNL1       -0.2400
     31 C          63.3658   81.3694   12.7014 C.ar    1  UNL1        0.1281
     32 C          63.0440   82.3765   11.6374 C.ar    1  UNL1        0.1566
     33 F          62.6829   81.9182   10.2555 F       1  UNL1       -0.2028
     34 C          63.0832   83.8419   11.9553 C.ar    1  UNL1        0.0261
     35 C          63.4443   84.3002   13.3372 C.ar    1  UNL1        0.1002
     36 N          63.4835   85.7656   13.6551 N.ar    1  UNL1       -0.2104
     37 C          63.1675   88.2139   16.5638 C.3     1  UNL1        0.2542
     38 O          63.8838   87.6892   15.3548 O.3     1  UNL1       -0.4561
@<TRIPOS>BOND
     1    37    38    1
     2    38    26    1
     3    26    27   ar
     4    27    28   ar
     5    28    29   ar
     6    29    30   ar
     7    30    31   ar
     8    31    32   ar
     9    32    33    1
    10    32    34   ar
    11    34    25    1
    12    25    24    1
    13    24     1    1
    14     1     2    1
    15     1     3    1
    16     3     4    1
    17     5     4    1
    18     5     6    1
    19     6    11    1
    20    11    13    1
    21    13    14    1
    22    14    15   ar
    23    15    16   ar
    24    16    17   ar
    25    17    18   ar
    26    18    19   ar
    27    17    20    1
    28    20    21    1
    29    21    22    1
    30    22    23    1
    31     6     7    1
    32     7     8    1
    33     9     8    1
    34    34    35   ar
    35    35    36   ar
    36    36    26   ar
    37    35    29   ar
    38     9     1    1
    39     9     5    1
    40    19    14   ar
    41    23    16    1
    42     2    10    1
    43    11    12    1
@<TRIPOS>MOLECULE
*****
 38 43 0 0 0
SMALL
GASTEIGER

@<TRIPOS>ATOM
      1 C          64.1451   84.1881   15.0472 C.3     1  UNL1        0.1429
      2 O          64.7968   83.0224   14.3643 O.3     1  UNL1       -0.3818
      3 C          65.3977   84.9152   14.6571 C.3     1  UNL1        0.1713
      4 O          65.2868   86.3273   15.1506 O.3     1  UNL1       -0.3497
      5 C          63.9657   86.4730   15.8458 C.3     1  UNL1        0.1614
      6 C          63.0806   87.4357   16.5804 C.3     1  UNL1        0.1143
      7 C          61.8280   86.7086   16.9706 C.3     1  UNL1        0.1604
      8 O          61.9389   85.2965   16.4771 O.3     1  UNL1       -0.3497
      9 C          63.2601   85.1508   15.7819 C.3     1  UNL1        0.1703
     10 H          65.6634   83.2915   14.0216 H       1  UNL1        0.2104
     11 N          63.3933   88.8732   16.8735 N.3     1  UNL1       -0.2895
     12 H          64.4098   88.9551   16.8946 H       1  UNL1        0.1237
     13 C          62.8909   89.9514   15.9597 C.3     1  UNL1        0.1153
     14 C          63.8633   90.8018   15.1974 C.ar    1  UNL1        0.0782
     15 C          63.8018   90.8521   13.6994 C.ar    1  UNL1        0.0562
     16 C          64.7743   91.7025   12.9371 C.ar    1  UNL1        0.1752
     17 C          65.8082   92.5025   13.6726 C.ar    1  UNL1        0.1914
     18 C          65.8697   92.4522   15.1705 C.ar    1  UNL1        0.1384
     19 N          64.8972   91.6017   15.9328 N.ar    1  UNL1       -0.2434
     20 O          66.7807   93.3529   12.9103 O.3     1  UNL1       -0.4668
     21 C          66.7192   93.4033   11.4123 C.3     1  UNL1        0.2527
     22 C          65.6853   92.6033   10.6768 C.3     1  UNL1        0.2526
     23 O          64.7128   91.7529   11.4392 O.3     1  UNL1       -0.4683
     24 C          63.0287   83.2173   15.2946 C.3     1  UNL1        0.0367
     25 C          62.0430   82.9144   14.2053 C.3     1  UNL1        0.0328
     26 C          62.1266   86.2907   11.2315 C.ar    1  UNL1        0.2250
     27 C          62.6073   86.0457    9.8319 C.ar    1  UNL1        0.0593
     28 C          63.0601   84.6752    9.4236 C.ar    1  UNL1        0.0254
     29 C          63.0323   83.5498   10.4148 C.ar    1  UNL1        0.0990
     30 N          63.4851   82.1793   10.0065 N.ar    1  UNL1       -0.2400
     31 C          63.4572   81.0539   10.9977 C.ar    1  UNL1        0.1281
     32 C          62.9765   81.2989   12.3973 C.ar    1  UNL1        0.1566
     33 F          62.9486   80.1735   13.3886 F       1  UNL1       -0.2028
     34 C          62.5237   82.6694   12.8057 C.ar    1  UNL1        0.0261
     35 C          62.5516   83.7948   11.8144 C.ar    1  UNL1        0.1002
     36 N          62.0988   85.1653   12.2227 N.ar    1  UNL1       -0.2104
     37 C          60.3505   88.1858   11.1669 C.3     1  UNL1        0.2542
     38 O          61.6738   87.6612   11.6398 O.3     1  UNL1       -0.4561
@<TRIPOS>BOND
     1    37    38    1
     2    38    26    1
     3    26    27   ar
     4    27    28   ar
     5    28    29   ar
     6    29    30   ar
     7    30    31   ar
     8    31    32   ar
     9    32    33    1
    10    32    34   ar
    11    34    25    1
    12    25    24    1
    13    24     1    1
    14     1     2    1
    15     1     3    1
    16     3     4    1
    17     5     4    1
    18     5     6    1
    19     6    11    1
    20    11    13    1
    21    13    14    1
    22    14    15   ar
    23    15    16   ar
    24    16    17   ar
    25    17    18   ar
    26    18    19   ar
    27    17    20    1
    28    20    21    1
    29    21    22    1
    30    22    23    1
    31     6     7    1
    32     7     8    1
    33     9     8    1
    34    34    35   ar
    35    35    36   ar
    36    36    26   ar
    37    35    29   ar
    38     9     1    1
    39     9     5    1
    40    19    14   ar
    41    23    16    1
    42     2    10    1
    43    11    12    1
