@<TRIPOS>MOLECULE
*****
 27 30 0 0 0
SMALL
GASTEIGER

@<TRIPOS>ATOM
      1 C          63.5201   82.2922   12.2846 C.2     1  UNL1        0.0919
      2 C          63.9443   81.8116   13.6407 C.2     1  UNL1        0.0183
      3 C          64.1880   82.7983   14.7438 C.2     1  UNL1        0.0511
      4 C          64.0074   84.2658   14.4909 C.2     1  UNL1        0.2322
      5 N          64.1732   85.4649   15.3767 N.2     1  UNL1       -0.0308
      6 C          63.8514   86.6866   14.5681 C.2     1  UNL1        0.3760
      7 N          63.4867   86.2426   13.1825 N.2     1  UNL1       -0.0347
      8 C          63.5832   84.7464   13.1348 C.2     1  UNL1        0.2191
      9 C          63.3395   83.7596   12.0317 C.3     1  UNL1        0.1226
     10 C          63.8878   88.1036   15.0589 C.ar    1  UNL1        0.0989
     11 C          64.4884   89.1787   14.2025 C.ar    1  UNL1        0.0085
     12 C          64.5248   90.5957   14.6933 C.ar    1  UNL1        0.0003
     13 C          63.9608   90.9374   16.0405 C.ar    1  UNL1        0.0009
     14 C          63.3602   89.8623   16.8969 C.ar    1  UNL1        0.0116
     15 C          63.3238   88.4454   16.4061 C.ar    1  UNL1        0.0651
     16 CL         62.7232   87.3702   17.2625 Cl      1  UNL1       -0.0820
     17 C          65.1254   91.6708   13.8369 C.ar    1  UNL1        0.0000
     18 C          64.7926   91.7393   12.3759 C.ar    1  UNL1        0.0000
     19 C          65.3932   92.8145   11.5196 C.ar    1  UNL1        0.0000
     20 C          66.3264   93.8211   12.1242 C.ar    1  UNL1        0.0000
     21 C          66.6592   93.7526   13.5851 C.ar    1  UNL1        0.0000
     22 C          66.0586   92.6775   14.4415 C.ar    1  UNL1        0.0000
     23 S          63.2764   81.3054   11.1815 S.O2    1  UNL1        0.0054
     24 O          63.8455   82.2749   10.1885 O.2     1  UNL1       -0.1689
     25 O          62.7073   80.3358   12.1746 O.2     1  UNL1       -0.1689
     26 C          62.7177   78.8893   10.4068 C.3     1  UNL1        0.0276
     27 C          63.0327   80.3186   10.0784 C.3     1  UNL1        0.1556
@<TRIPOS>BOND
     1    26    27    1
     2    27    23    1
     3    23    24    2
     4    23    25    2
     5    23     1    1
     6     1     2    2
     7     2     3    1
     8     3     4    2
     9     4     5    1
    10     5     6    2
    11     6    10    1
    12    10    11   ar
    13    11    12   ar
    14    12    17    1
    15    17    18   ar
    16    18    19   ar
    17    19    20   ar
    18    20    21   ar
    19    21    22   ar
    20    12    13   ar
    21    13    14   ar
    22    14    15   ar
    23    15    16    1
    24     6     7    1
    25     7     8    2
    26     8     9    1
    27     9     1    1
    28     8     4    1
    29    15    10   ar
    30    22    17   ar
@<TRIPOS>MOLECULE
*****
 27 30 0 0 0
SMALL
GASTEIGER

@<TRIPOS>ATOM
      1 C          66.3720   92.4182   14.0029 C.2     1  UNL1        0.0919
      2 C          66.3208   93.2880   12.7820 C.2     1  UNL1        0.0183
      3 C          65.3761   92.9575   11.6647 C.2     1  UNL1        0.0511
      4 C          64.4825   91.7572   11.7684 C.2     1  UNL1        0.2322
      5 N          63.4574   91.1853   10.8346 N.2     1  UNL1       -0.0308
      6 C          62.8749   89.9621   11.4785 C.2     1  UNL1        0.3760
      7 N          63.5401   89.7779   12.8102 N.2     1  UNL1       -0.0347
      8 C          64.5337   90.8874   12.9894 C.2     1  UNL1        0.2191
      9 C          65.4784   91.2179   14.1066 C.3     1  UNL1        0.1226
     10 C          61.8135   89.0783   10.8932 C.ar    1  UNL1        0.0989
     11 C          62.1768   88.0533    9.8600 C.ar    1  UNL1        0.0085
     12 C          61.1155   87.1695    9.2748 C.ar    1  UNL1        0.0003
     13 C          59.6910   87.3106    9.7228 C.ar    1  UNL1        0.0009
     14 C          59.3278   88.3356   10.7561 C.ar    1  UNL1        0.0116
     15 C          60.3890   89.2194   11.3413 C.ar    1  UNL1        0.0651
     16 CL         60.0258   90.2443   12.3745 Cl      1  UNL1       -0.0820
     17 C          61.4788   86.1446    8.2416 C.ar    1  UNL1        0.0000
     18 C          60.4528   85.6838    7.2491 C.ar    1  UNL1        0.0000
     19 C          60.8161   84.6589    6.2159 C.ar    1  UNL1        0.0000
     20 C          62.2053   84.0947    6.1751 C.ar    1  UNL1        0.0000
     21 C          63.2313   84.5554    7.1676 C.ar    1  UNL1        0.0000
     22 C          62.8680   85.5804    8.2009 C.ar    1  UNL1        0.0000
     23 S          67.3167   92.7487   15.1202 S.O2    1  UNL1        0.0054
     24 O          68.4515   92.8137   14.1414 O.2     1  UNL1       -0.1689
     25 O          66.1819   92.6838   16.0990 O.2     1  UNL1       -0.1689
     26 C          69.2454   94.2005   16.0807 C.3     1  UNL1        0.0276
     27 C          68.2614   93.0792   16.2374 C.3     1  UNL1        0.1556
@<TRIPOS>BOND
     1    26    27    1
     2    27    23    1
     3    23    24    2
     4    23    25    2
     5    23     1    1
     6     1     2    2
     7     2     3    1
     8     3     4    2
     9     4     5    1
    10     5     6    2
    11     6    10    1
    12    10    11   ar
    13    11    12   ar
    14    12    17    1
    15    17    18   ar
    16    18    19   ar
    17    19    20   ar
    18    20    21   ar
    19    21    22   ar
    20    12    13   ar
    21    13    14   ar
    22    14    15   ar
    23    15    16    1
    24     6     7    1
    25     7     8    2
    26     8     9    1
    27     9     1    1
    28     8     4    1
    29    15    10   ar
    30    22    17   ar
@<TRIPOS>MOLECULE
*****
 27 30 0 0 0
SMALL
GASTEIGER

@<TRIPOS>ATOM
      1 C          66.6910   92.7040   14.4197 C.2     1  UNL1        0.0919
      2 C          66.3391   93.5554   13.2360 C.2     1  UNL1        0.0183
      3 C          65.3662   93.0508   12.2119 C.2     1  UNL1        0.0511
      4 C          64.7453   91.6947   12.3714 C.2     1  UNL1        0.2322
      5 N          63.7614   90.9361   11.5309 N.2     1  UNL1       -0.0308
      6 C          63.5053   89.6158   12.1952 C.2     1  UNL1        0.3760
      7 N          64.3309   89.5584   13.4462 N.2     1  UNL1       -0.0347
      8 C          65.0973   90.8433   13.5551 C.2     1  UNL1        0.2191
      9 C          66.0701   91.3479   14.5792 C.3     1  UNL1        0.1226
     10 C          62.5851   88.5415   11.6959 C.ar    1  UNL1        0.0989
     11 C          63.0311   87.1093   11.7022 C.ar    1  UNL1        0.0085
     12 C          62.1110   86.0350   11.2030 C.ar    1  UNL1        0.0003
     13 C          60.7448   86.3929   10.6976 C.ar    1  UNL1        0.0009
     14 C          60.2988   87.8250   10.6914 C.ar    1  UNL1        0.0116
     15 C          61.2189   88.8993   11.1906 C.ar    1  UNL1        0.0651
     16 CL         60.7729   90.3314   11.1843 Cl      1  UNL1       -0.0820
     17 C          62.5570   84.6029   11.2092 C.ar    1  UNL1        0.0000
     18 C          63.3642   84.0638   10.0656 C.ar    1  UNL1        0.0000
     19 C          63.8103   82.6317   10.0719 C.ar    1  UNL1        0.0000
     20 C          63.4491   81.7386   11.2216 C.ar    1  UNL1        0.0000
     21 C          62.6419   82.2777   12.3652 C.ar    1  UNL1        0.0000
     22 C          62.1959   83.7099   12.3590 C.ar    1  UNL1        0.0000
     23 S          67.6639   93.2086   15.4439 S.O2    1  UNL1        0.0054
     24 O          68.7618   93.1644   14.4227 O.2     1  UNL1       -0.1689
     25 O          66.5660   93.2528   16.4650 O.2     1  UNL1       -0.1689
     26 C          69.7693   94.6042   16.0516 C.3     1  UNL1        0.0276
     27 C          68.6368   93.7132   16.4680 C.3     1  UNL1        0.1556
@<TRIPOS>BOND
     1    26    27    1
     2    27    23    1
     3    23    24    2
     4    23    25    2
     5    23     1    1
     6     1     2    2
     7     2     3    1
     8     3     4    2
     9     4     5    1
    10     5     6    2
    11     6    10    1
    12    10    11   ar
    13    11    12   ar
    14    12    17    1
    15    17    18   ar
    16    18    19   ar
    17    19    20   ar
    18    20    21   ar
    19    21    22   ar
    20    12    13   ar
    21    13    14   ar
    22    14    15   ar
    23    15    16    1
    24     6     7    1
    25     7     8    2
    26     8     9    1
    27     9     1    1
    28     8     4    1
    29    15    10   ar
    30    22    17   ar
@<TRIPOS>MOLECULE
*****
 27 30 0 0 0
SMALL
GASTEIGER

@<TRIPOS>ATOM
      1 C          62.9586   81.9969   12.6353 C.2     1  UNL1        0.0919
      2 C          63.2016   82.1154   14.1107 C.2     1  UNL1        0.0183
      3 C          63.4075   83.4656   14.7308 C.2     1  UNL1        0.0511
      4 C          63.3704   84.6973   13.8755 C.2     1  UNL1        0.2322
      5 N          63.5381   86.1516   14.2023 N.2     1  UNL1       -0.0308
      6 C          63.3988   86.9319   12.9288 C.2     1  UNL1        0.3760
      7 N          63.1449   85.9599   11.8150 N.2     1  UNL1       -0.0347
      8 C          63.1273   84.5788   12.4001 C.2     1  UNL1        0.2191
      9 C          62.9214   83.2286   11.7800 C.3     1  UNL1        0.1226
     10 C          63.4962   88.4227   12.7930 C.ar    1  UNL1        0.0989
     11 C          64.4695   89.1906   13.6374 C.ar    1  UNL1        0.0085
     12 C          64.5670   90.6812   13.5017 C.ar    1  UNL1        0.0003
     13 C          63.6912   91.4039   12.5215 C.ar    1  UNL1        0.0009
     14 C          62.7179   90.6360   11.6772 C.ar    1  UNL1        0.0116
     15 C          62.6204   89.1453   11.8129 C.ar    1  UNL1        0.0651
     16 CL         61.6472   88.3774   10.9685 Cl      1  UNL1       -0.0820
     17 C          65.5403   91.4492   14.3460 C.ar    1  UNL1        0.0000
     18 C          66.8877   91.8115   13.7957 C.ar    1  UNL1        0.0000
     19 C          67.8610   92.5795   14.6400 C.ar    1  UNL1        0.0000
     20 C          67.4868   92.9851   16.0348 C.ar    1  UNL1        0.0000
     21 C          66.1393   92.6228   16.5852 C.ar    1  UNL1        0.0000
     22 C          65.1661   91.8548   15.7408 C.ar    1  UNL1        0.0000
     23 S          62.7527   80.6467   12.0152 S.O2    1  UNL1        0.0054
     24 O          63.1161   81.2079   10.6725 O.2     1  UNL1       -0.1689
     25 O          62.3892   80.0854   13.3579 O.2     1  UNL1       -0.1689
     26 C          62.8242   79.0914    9.9354 C.3     1  UNL1        0.0276
     27 C          62.5467   79.2965   11.3951 C.3     1  UNL1        0.1556
@<TRIPOS>BOND
     1    26    27    1
     2    27    23    1
     3    23    24    2
     4    23    25    2
     5    23     1    1
     6     1     2    2
     7     2     3    1
     8     3     4    2
     9     4     5    1
    10     5     6    2
    11     6    10    1
    12    10    11   ar
    13    11    12   ar
    14    12    17    1
    15    17    18   ar
    16    18    19   ar
    17    19    20   ar
    18    20    21   ar
    19    21    22   ar
    20    12    13   ar
    21    13    14   ar
    22    14    15   ar
    23    15    16    1
    24     6     7    1
    25     7     8    2
    26     8     9    1
    27     9     1    1
    28     8     4    1
    29    15    10   ar
    30    22    17   ar
@<TRIPOS>MOLECULE
*****
 27 30 0 0 0
SMALL
GASTEIGER

@<TRIPOS>ATOM
      1 C          62.8253   83.8421   13.1408 C.2     1  UNL1        0.0919
      2 C          62.1781   84.3344   11.8803 C.2     1  UNL1        0.0183
      3 C          62.2562   85.7871   11.5150 C.2     1  UNL1        0.0511
      4 C          62.9815   86.7476   12.4102 C.2     1  UNL1        0.2322
      5 N          63.2227   88.2248   12.3117 N.2     1  UNL1       -0.0308
      6 C          64.0189   88.6455   13.5113 C.2     1  UNL1        0.3760
      7 N          64.2698   87.4283   14.3512 N.2     1  UNL1       -0.0347
      8 C          63.6287   86.2553   13.6707 C.2     1  UNL1        0.2191
      9 C          63.5506   84.8026   14.0360 C.3     1  UNL1        0.1226
     10 C          64.4827   90.0389   13.8173 C.ar    1  UNL1        0.0989
     11 C          65.0956   90.8795   12.7367 C.ar    1  UNL1        0.0085
     12 C          65.5594   92.2728   13.0426 C.ar    1  UNL1        0.0003
     13 C          65.4104   92.8254   14.4291 C.ar    1  UNL1        0.0009
     14 C          64.7974   91.9848   15.5096 C.ar    1  UNL1        0.0116
     15 C          64.3336   90.5915   15.2038 C.ar    1  UNL1        0.0651
     16 CL         63.7207   89.7508   16.2843 Cl      1  UNL1       -0.0820
     17 C          66.1724   93.1134   11.9620 C.ar    1  UNL1        0.0000
     18 C          66.0482   94.6074   12.0127 C.ar    1  UNL1        0.0000
     19 C          66.6611   95.4480   10.9321 C.ar    1  UNL1        0.0000
     20 C          67.3982   94.7947    9.8009 C.ar    1  UNL1        0.0000
     21 C          67.5223   93.3008    9.7501 C.ar    1  UNL1        0.0000
     22 C          66.9094   92.4601   10.8307 C.ar    1  UNL1        0.0000
     23 S          62.7472   82.3893   13.5060 S.O2    1  UNL1        0.0054
     24 O          62.9051   82.7451   14.9547 O.2     1  UNL1       -0.1689
     25 O          62.5894   82.0336   12.0574 O.2     1  UNL1       -0.1689
     26 C          62.5011   79.9016   12.7988 C.3     1  UNL1        0.0276
     27 C          62.6691   80.9366   13.8713 C.3     1  UNL1        0.1556
@<TRIPOS>BOND
     1    26    27    1
     2    27    23    1
     3    23    24    2
     4    23    25    2
     5    23     1    1
     6     1     2    2
     7     2     3    1
     8     3     4    2
     9     4     5    1
    10     5     6    2
    11     6    10    1
    12    10    11   ar
    13    11    12   ar
    14    12    17    1
    15    17    18   ar
    16    18    19   ar
    17    19    20   ar
    18    20    21   ar
    19    21    22   ar
    20    12    13   ar
    21    13    14   ar
    22    14    15   ar
    23    15    16    1
    24     6     7    1
    25     7     8    2
    26     8     9    1
    27     9     1    1
    28     8     4    1
    29    15    10   ar
    30    22    17   ar
@<TRIPOS>MOLECULE
*****
 27 30 0 0 0
SMALL
GASTEIGER

@<TRIPOS>ATOM
      1 C          65.3352   91.5754   13.7263 C.2     1  UNL1        0.0919
      2 C          64.4216   91.5785   12.5367 C.2     1  UNL1        0.0183
      3 C          63.6507   90.3422   12.1798 C.2     1  UNL1        0.0511
      4 C          63.7934   89.1028   13.0126 C.2     1  UNL1        0.2322
      5 N          63.1661   87.7444   12.9064 N.2     1  UNL1       -0.0308
      6 C          63.6921   86.9018   14.0304 C.2     1  UNL1        0.3760
      7 N          64.6444   87.7394   14.8313 N.2     1  UNL1       -0.0347
      8 C          64.7070   89.0997   14.2023 C.2     1  UNL1        0.2191
      9 C          65.4779   90.3360   14.5591 C.3     1  UNL1        0.1226
     10 C          63.3293   85.4724   14.3052 C.ar    1  UNL1        0.0989
     11 C          63.3534   84.4656   13.1936 C.ar    1  UNL1        0.0085
     12 C          62.9907   83.0363   13.4683 C.ar    1  UNL1        0.0003
     13 C          62.6039   82.6139   14.8547 C.ar    1  UNL1        0.0009
     14 C          62.5799   83.6207   15.9663 C.ar    1  UNL1        0.0116
     15 C          62.9426   85.0500   15.6915 C.ar    1  UNL1        0.0651
     16 CL         62.9186   86.0569   16.8031 Cl      1  UNL1       -0.0820
     17 C          63.0147   82.0294   12.3567 C.ar    1  UNL1        0.0000
     18 C          62.6168   80.6080   12.6236 C.ar    1  UNL1        0.0000
     19 C          62.6409   79.6011   11.5120 C.ar    1  UNL1        0.0000
     20 C          63.0628   80.0157   10.1336 C.ar    1  UNL1        0.0000
     21 C          63.4607   81.4371    9.8667 C.ar    1  UNL1        0.0000
     22 C          63.4366   82.4439   10.9783 C.ar    1  UNL1        0.0000
     23 S          66.1062   92.8116   14.0832 S.O2    1  UNL1        0.0054
     24 O          66.5909   92.9179   12.6676 O.2     1  UNL1       -0.1689
     25 O          65.6214   92.7054   15.4987 O.2     1  UNL1       -0.1689
     26 C          68.0236   93.9648   15.4036 C.3     1  UNL1        0.0276
     27 C          66.8771   94.0479   14.4400 C.3     1  UNL1        0.1556
@<TRIPOS>BOND
     1    26    27    1
     2    27    23    1
     3    23    24    2
     4    23    25    2
     5    23     1    1
     6     1     2    2
     7     2     3    1
     8     3     4    2
     9     4     5    1
    10     5     6    2
    11     6    10    1
    12    10    11   ar
    13    11    12   ar
    14    12    17    1
    15    17    18   ar
    16    18    19   ar
    17    19    20   ar
    18    20    21   ar
    19    21    22   ar
    20    12    13   ar
    21    13    14   ar
    22    14    15   ar
    23    15    16    1
    24     6     7    1
    25     7     8    2
    26     8     9    1
    27     9     1    1
    28     8     4    1
    29    15    10   ar
    30    22    17   ar
@<TRIPOS>MOLECULE
*****
 27 30 0 0 0
SMALL
GASTEIGER

@<TRIPOS>ATOM
      1 C          59.3726   89.3386    7.0512 C.2     1  UNL1        0.0919
      2 C          58.9966   87.8893    7.1397 C.2     1  UNL1        0.0183
      3 C          59.5571   87.0347    8.2378 C.2     1  UNL1        0.0511
      4 C          60.4936   87.6296    9.2472 C.2     1  UNL1        0.2322
      5 N          61.1994   87.0392   10.4318 N.2     1  UNL1       -0.0308
      6 C          62.0117   88.1237   11.0753 C.2     1  UNL1        0.3760
      7 N          61.8079   89.3843   10.2885 N.2     1  UNL1       -0.0347
      8 C          60.8696   89.0790    9.1586 C.2     1  UNL1        0.2191
      9 C          60.3091   89.9335    8.0606 C.3     1  UNL1        0.1226
     10 C          62.8760   87.9737   12.2921 C.ar    1  UNL1        0.0989
     11 C          63.4239   89.1903   12.9774 C.ar    1  UNL1        0.0085
     12 C          64.2881   89.0405   14.1942 C.ar    1  UNL1        0.0003
     13 C          64.6046   87.6739   14.7256 C.ar    1  UNL1        0.0009
     14 C          64.0567   86.4573   14.0403 C.ar    1  UNL1        0.0116
     15 C          63.1924   86.6072   12.8235 C.ar    1  UNL1        0.0651
     16 CL         62.6446   85.3906   12.1382 Cl      1  UNL1       -0.0820
     17 C          64.8360   90.2571   14.8795 C.ar    1  UNL1        0.0000
     18 C          66.1740   90.8046   14.4795 C.ar    1  UNL1        0.0000
     19 C          66.7219   92.0212   15.1649 C.ar    1  UNL1        0.0000
     20 C          65.9317   92.6904   16.2501 C.ar    1  UNL1        0.0000
     21 C          64.5937   92.1429   16.6501 C.ar    1  UNL1        0.0000
     22 C          64.0459   90.9263   15.9647 C.ar    1  UNL1        0.0000
     23 S          58.8121   90.1932    5.9532 S.O2    1  UNL1        0.0054
     24 O          57.4208   89.8474    6.3943 O.2     1  UNL1       -0.1689
     25 O          60.2035   90.5389    5.5120 O.2     1  UNL1       -0.1689
     26 C          59.0330   92.2225    4.3460 C.3     1  UNL1        0.0276
     27 C          58.2516   91.0477    4.8551 C.3     1  UNL1        0.1556
@<TRIPOS>BOND
     1    26    27    1
     2    27    23    1
     3    23    24    2
     4    23    25    2
     5    23     1    1
     6     1     2    2
     7     2     3    1
     8     3     4    2
     9     4     5    1
    10     5     6    2
    11     6    10    1
    12    10    11   ar
    13    11    12   ar
    14    12    17    1
    15    17    18   ar
    16    18    19   ar
    17    19    20   ar
    18    20    21   ar
    19    21    22   ar
    20    12    13   ar
    21    13    14   ar
    22    14    15   ar
    23    15    16    1
    24     6     7    1
    25     7     8    2
    26     8     9    1
    27     9     1    1
    28     8     4    1
    29    15    10   ar
    30    22    17   ar
@<TRIPOS>MOLECULE
*****
 27 30 0 0 0
SMALL
GASTEIGER

@<TRIPOS>ATOM
      1 C          62.9103   83.6340   12.2245 C.2     1  UNL1        0.0919
      2 C          62.4438   84.4526   11.0574 C.2     1  UNL1        0.0183
      3 C          62.5102   85.9500   11.1173 C.2     1  UNL1        0.0511
      4 C          63.0429   86.6286   12.3443 C.2     1  UNL1        0.2322
      5 N          63.2278   88.0764   12.6903 N.2     1  UNL1       -0.0308
      6 C          63.8085   88.1525   14.0713 C.2     1  UNL1        0.3760
      7 N          63.9825   86.7518   14.5788 N.2     1  UNL1       -0.0347
      8 C          63.5094   85.8099   13.5114 C.2     1  UNL1        0.2191
      9 C          63.4430   84.3126   13.4515 C.3     1  UNL1        0.1226
     10 C          64.1544   89.4089   14.8143 C.ar    1  UNL1        0.0989
     11 C          65.4941   90.0534   14.6148 C.ar    1  UNL1        0.0085
     12 C          65.8400   91.3097   15.3578 C.ar    1  UNL1        0.0003
     13 C          64.8462   91.9215   16.3001 C.ar    1  UNL1        0.0009
     14 C          63.5065   91.2769   16.4996 C.ar    1  UNL1        0.0116
     15 C          63.1606   90.0207   15.7566 C.ar    1  UNL1        0.0651
     16 CL         61.8209   89.3761   15.9561 Cl      1  UNL1       -0.0820
     17 C          67.1797   91.9542   15.1584 C.ar    1  UNL1        0.0000
     18 C          68.0165   91.5919   13.9673 C.ar    1  UNL1        0.0000
     19 C          69.3562   92.2365   13.7679 C.ar    1  UNL1        0.0000
     20 C          69.8591   93.2433   14.7595 C.ar    1  UNL1        0.0000
     21 C          69.0224   93.6056   15.9505 C.ar    1  UNL1        0.0000
     22 C          67.6827   92.9611   16.1499 C.ar    1  UNL1        0.0000
     23 S          62.8439   82.1366   12.1646 S.O2    1  UNL1        0.0054
     24 O          63.6083   82.1544   10.8741 O.2     1  UNL1       -0.1689
     25 O          62.0795   82.1189   13.4551 O.2     1  UNL1       -0.1689
     26 C          62.3655   79.8577   13.3169 C.3     1  UNL1        0.0276
     27 C          62.7776   80.6393   12.1047 C.3     1  UNL1        0.1556
@<TRIPOS>BOND
     1    26    27    1
     2    27    23    1
     3    23    24    2
     4    23    25    2
     5    23     1    1
     6     1     2    2
     7     2     3    1
     8     3     4    2
     9     4     5    1
    10     5     6    2
    11     6    10    1
    12    10    11   ar
    13    11    12   ar
    14    12    17    1
    15    17    18   ar
    16    18    19   ar
    17    19    20   ar
    18    20    21   ar
    19    21    22   ar
    20    12    13   ar
    21    13    14   ar
    22    14    15   ar
    23    15    16    1
    24     6     7    1
    25     7     8    2
    26     8     9    1
    27     9     1    1
    28     8     4    1
    29    15    10   ar
    30    22    17   ar
@<TRIPOS>MOLECULE
*****
 27 30 0 0 0
SMALL
GASTEIGER

@<TRIPOS>ATOM
      1 C          60.7362   91.9053    3.7804 C.2     1  UNL1        0.0919
      2 C          62.0046   91.1380    4.0094 C.2     1  UNL1        0.0183
      3 C          63.2225   91.4396    3.1874 C.2     1  UNL1        0.0511
      4 C          63.1721   92.5085    2.1363 C.2     1  UNL1        0.2322
      5 N          64.2050   93.0240    1.1786 N.2     1  UNL1       -0.0308
      6 C          63.5751   94.1100    0.3576 C.2     1  UNL1        0.3760
      7 N          62.1528   94.2657    0.8080 N.2     1  UNL1       -0.0347
      8 C          61.9037   93.2759    1.9073 C.2     1  UNL1        0.2191
      9 C          60.6858   92.9743    2.7293 C.3     1  UNL1        0.1226
     10 C          64.2492   94.9013   -0.7238 C.ar    1  UNL1        0.0989
     11 C          64.0465   94.5292   -2.1627 C.ar    1  UNL1        0.0085
     12 C          64.7205   95.3204   -3.2442 C.ar    1  UNL1        0.0003
     13 C          65.5972   96.4838   -2.8867 C.ar    1  UNL1        0.0009
     14 C          65.7999   96.8559   -1.4478 C.ar    1  UNL1        0.0116
     15 C          65.1259   96.0647   -0.3664 C.ar    1  UNL1        0.0651
     16 CL         65.3286   96.4368    1.0725 Cl      1  UNL1       -0.0820
     17 C          64.5178   94.9483   -4.6831 C.ar    1  UNL1        0.0000
     18 C          65.2457   95.6957   -5.7607 C.ar    1  UNL1        0.0000
     19 C          65.0430   95.3236   -7.1996 C.ar    1  UNL1        0.0000
     20 C          64.1123   94.2041   -7.5609 C.ar    1  UNL1        0.0000
     21 C          63.3844   93.4567   -6.4832 C.ar    1  UNL1        0.0000
     22 C          63.5871   93.8288   -5.0443 C.ar    1  UNL1        0.0000
     23 S          59.5183   91.6037    4.6024 S.O2    1  UNL1        0.0054
     24 O          58.7710   92.6956    3.8958 O.2     1  UNL1       -0.1689
     25 O          60.2656   90.5118    5.3090 O.2     1  UNL1       -0.1689
     26 C          56.9339   91.4598    4.8263 C.3     1  UNL1        0.0276
     27 C          58.3004   91.3021    5.4244 C.3     1  UNL1        0.1556
@<TRIPOS>BOND
     1    26    27    1
     2    27    23    1
     3    23    24    2
     4    23    25    2
     5    23     1    1
     6     1     2    2
     7     2     3    1
     8     3     4    2
     9     4     5    1
    10     5     6    2
    11     6    10    1
    12    10    11   ar
    13    11    12   ar
    14    12    17    1
    15    17    18   ar
    16    18    19   ar
    17    19    20   ar
    18    20    21   ar
    19    21    22   ar
    20    12    13   ar
    21    13    14   ar
    22    14    15   ar
    23    15    16    1
    24     6     7    1
    25     7     8    2
    26     8     9    1
    27     9     1    1
    28     8     4    1
    29    15    10   ar
    30    22    17   ar
