@<TRIPOS>MOLECULE
*****
 31 33 0 0 0
SMALL
GASTEIGER

@<TRIPOS>ATOM
      1 O          62.3436   89.3230   16.2504 O.2     1  UNL1       -0.2732
      2 C          63.2894   88.1915   15.9763 C.2     1  UNL1        0.2430
      3 N          64.3761   88.3529   14.9551 N.am    1  UNL1       -0.2972
      4 H          64.9968   87.6102   14.7752 H       1  UNL1        0.1500
      5 C          63.1484   86.8985   16.7234 C.3     1  UNL1        0.1759
      6 N          62.8186   85.6364   15.9829 N.am    1  UNL1       -0.2931
      7 C          63.8490   84.9913   15.1041 C.2     1  UNL1        0.2462
      8 O          65.2092   85.6084   14.9659 O.2     1  UNL1       -0.2701
      9 H          61.9259   85.2314   16.0735 H       1  UNL1        0.1502
     10 C          63.5192   83.7292   14.3635 C.ar    1  UNL1        0.0535
     11 C          62.3798   82.8674   14.8206 C.ar    1  UNL1        0.0068
     12 C          62.0500   81.6054   14.0800 C.ar    1  UNL1        0.0298
     13 C          62.8597   81.2052   12.8824 C.ar    1  UNL1        0.1401
     14 F          62.5299   79.9431   12.1418 F       1  UNL1       -0.2042
     15 C          63.9991   82.0670   12.4254 C.ar    1  UNL1        0.0298
     16 C          64.3289   83.3290   13.1659 C.ar    1  UNL1        0.0068
     17 C          64.5171   89.6459   14.2079 C.3     1  UNL1        0.1171
     18 C          63.8400   89.8232   12.8812 C.ar    1  UNL1        0.0019
     19 C          63.9017   91.1470   12.1786 C.ar    1  UNL1       -0.0022
     20 C          63.2247   91.3243   10.8519 C.ar    1  UNL1        0.0020
     21 C          62.4859   90.1777   10.2277 C.ar    1  UNL1        0.0296
     22 C          62.4242   88.8538   10.9303 C.ar    1  UNL1        0.1399
     23 F          61.6855   87.7072   10.3062 F       1  UNL1       -0.2042
     24 C          63.1013   88.6765   12.2570 C.ar    1  UNL1        0.0273
     25 C          65.3351   90.7617   14.7874 C.ar    1  UNL1        0.0019
     26 C          64.7515   91.6466   15.8488 C.ar    1  UNL1       -0.0022
     27 C          65.5696   92.7623   16.4283 C.ar    1  UNL1        0.0020
     28 C          66.9713   92.9932   15.9465 C.ar    1  UNL1        0.0296
     29 C          67.5548   92.1083   14.8852 C.ar    1  UNL1        0.1399
     30 F          68.9564   92.3392   14.4034 F       1  UNL1       -0.2042
     31 C          66.7367   90.9926   14.3056 C.ar    1  UNL1        0.0273
@<TRIPOS>BOND
     1     1     2    2
     2     2     5    1
     3     5     6    1
     4     6     7   am
     5     7     8    2
     6     7    10    1
     7    10    11   ar
     8    11    12   ar
     9    12    13   ar
    10    13    14    1
    11    13    15   ar
    12    15    16   ar
    13     2     3   am
    14     3    17    1
    15    17    18    1
    16    18    19   ar
    17    19    20   ar
    18    20    21   ar
    19    21    22   ar
    20    22    23    1
    21    22    24   ar
    22    17    25    1
    23    25    26   ar
    24    26    27   ar
    25    27    28   ar
    26    28    29   ar
    27    29    30    1
    28    29    31   ar
    29    16    10   ar
    30    24    18   ar
    31    31    25   ar
    32     6     9    1
    33     3     4    1
@<TRIPOS>MOLECULE
*****
 31 33 0 0 0
SMALL
GASTEIGER

@<TRIPOS>ATOM
      1 O          62.3815   89.3331   16.3401 O.2     1  UNL1       -0.2732
      2 C          63.2674   88.1716   15.9996 C.2     1  UNL1        0.2430
      3 N          64.3018   88.3079   14.9219 N.am    1  UNL1       -0.2972
      4 H          64.8833   87.5455   14.6985 H       1  UNL1        0.1500
      5 C          63.1191   86.8737   16.7368 C.3     1  UNL1        0.1759
      6 N          62.7984   85.6162   15.9846 N.am    1  UNL1       -0.2931
      7 C          63.8374   84.9801   15.1094 C.2     1  UNL1        0.2462
      8 O          65.1971   85.6015   14.9866 O.2     1  UNL1       -0.2701
      9 H          61.9060   85.2083   16.0652 H       1  UNL1        0.1502
     10 C          63.5167   83.7226   14.3572 C.ar    1  UNL1        0.0535
     11 C          62.3914   82.8420   14.8134 C.ar    1  UNL1        0.0068
     12 C          62.0708   81.5845   14.0611 C.ar    1  UNL1        0.0298
     13 C          62.8755   81.2077   12.8526 C.ar    1  UNL1        0.1401
     14 F          62.5548   79.9502   12.1003 F       1  UNL1       -0.2042
     15 C          64.0007   82.0883   12.3964 C.ar    1  UNL1        0.0298
     16 C          64.3213   83.3458   13.1486 C.ar    1  UNL1        0.0068
     17 C          64.4502   89.6057   14.1846 C.3     1  UNL1        0.1171
     18 C          65.2631   90.7173   14.7791 C.ar    1  UNL1        0.0019
     19 C          64.6748   91.5862   15.8510 C.ar    1  UNL1       -0.0022
     20 C          65.4877   92.6979   16.4456 C.ar    1  UNL1        0.0020
     21 C          66.8889   92.9406   15.9683 C.ar    1  UNL1        0.0296
     22 C          67.4772   92.0717   14.8964 C.ar    1  UNL1        0.1399
     23 F          68.8783   92.3144   14.4191 F       1  UNL1       -0.2042
     24 C          66.6643   90.9601   14.3018 C.ar    1  UNL1        0.0273
     25 C          63.7858   89.7919   12.8528 C.ar    1  UNL1        0.0019
     26 C          63.8552   91.1202   12.1591 C.ar    1  UNL1       -0.0022
     27 C          63.1907   91.3063   10.8272 C.ar    1  UNL1        0.0020
     28 C          62.4568   90.1643   10.1891 C.ar    1  UNL1        0.0296
     29 C          62.3874   88.8362   10.8827 C.ar    1  UNL1        0.1399
     30 F          61.6535   87.6942   10.2445 F       1  UNL1       -0.2042
     31 C          63.0519   88.6500   12.2146 C.ar    1  UNL1        0.0273
@<TRIPOS>BOND
     1     1     2    2
     2     2     5    1
     3     5     6    1
     4     6     7   am
     5     7     8    2
     6     7    10    1
     7    10    11   ar
     8    11    12   ar
     9    12    13   ar
    10    13    14    1
    11    13    15   ar
    12    15    16   ar
    13     2     3   am
    14     3    17    1
    15    17    18    1
    16    18    19   ar
    17    19    20   ar
    18    20    21   ar
    19    21    22   ar
    20    22    23    1
    21    22    24   ar
    22    17    25    1
    23    25    26   ar
    24    26    27   ar
    25    27    28   ar
    26    28    29   ar
    27    29    30    1
    28    29    31   ar
    29    16    10   ar
    30    24    18   ar
    31    31    25   ar
    32     6     9    1
    33     3     4    1
@<TRIPOS>MOLECULE
*****
 31 33 0 0 0
SMALL
GASTEIGER

@<TRIPOS>ATOM
      1 O          60.0035   87.9655   11.6421 O.2     1  UNL1       -0.2732
      2 C          61.3364   88.6534   11.6315 C.2     1  UNL1        0.2430
      3 N          62.5744   87.8845   11.2764 N.am    1  UNL1       -0.2972
      4 H          63.4493   88.3360   11.2694 H       1  UNL1        0.1500
      5 C          61.4314   90.1101   11.9759 C.3     1  UNL1        0.1759
      6 N          62.6011   90.6197   12.7648 N.am    1  UNL1       -0.2931
      7 C          63.7647   91.2499   12.0584 C.2     1  UNL1        0.2462
      8 O          63.7586   91.3706   10.5633 O.2     1  UNL1       -0.2701
      9 H          62.6052   90.5404   13.7461 H       1  UNL1        0.1502
     10 C          64.9345   91.7594   12.8473 C.ar    1  UNL1        0.0535
     11 C          65.4068   91.0094   14.0574 C.ar    1  UNL1        0.0068
     12 C          66.5765   91.5190   14.8461 C.ar    1  UNL1        0.0298
     13 C          67.2738   92.7784   14.4247 C.ar    1  UNL1        0.1401
     14 F          68.4436   93.2879   15.2136 F       1  UNL1       -0.2042
     15 C          66.8015   93.5283   13.2146 C.ar    1  UNL1        0.0298
     16 C          65.6318   93.0188   12.4259 C.ar    1  UNL1        0.0068
     17 C          62.4795   86.4276   10.9319 C.3     1  UNL1        0.1171
     18 C          62.7937   85.3898   11.9683 C.ar    1  UNL1        0.0019
     19 C          62.4729   83.9480   11.7072 C.ar    1  UNL1       -0.0022
     20 C          62.7870   82.9101   12.7437 C.ar    1  UNL1        0.0020
     21 C          63.4220   83.3142   14.0412 C.ar    1  UNL1        0.0296
     22 C          63.7427   84.7561   14.3023 C.ar    1  UNL1        0.1399
     23 F          64.3777   85.1601   15.5999 F       1  UNL1       -0.2042
     24 C          63.4286   85.7939   13.2659 C.ar    1  UNL1        0.0273
     25 C          62.0705   86.0086    9.5509 C.ar    1  UNL1        0.0019
     26 C          63.0450   85.2896    8.6657 C.ar    1  UNL1       -0.0022
     27 C          62.6359   84.8706    7.2848 C.ar    1  UNL1        0.0020
     28 C          61.2524   85.1706    6.7889 C.ar    1  UNL1        0.0296
     29 C          60.2779   85.8896    7.6740 C.ar    1  UNL1        0.1399
     30 F          58.8945   86.1896    7.1781 F       1  UNL1       -0.2042
     31 C          60.6870   86.3086    9.0550 C.ar    1  UNL1        0.0273
@<TRIPOS>BOND
     1     1     2    2
     2     2     5    1
     3     5     6    1
     4     6     7   am
     5     7     8    2
     6     7    10    1
     7    10    11   ar
     8    11    12   ar
     9    12    13   ar
    10    13    14    1
    11    13    15   ar
    12    15    16   ar
    13     2     3   am
    14     3    17    1
    15    17    18    1
    16    18    19   ar
    17    19    20   ar
    18    20    21   ar
    19    21    22   ar
    20    22    23    1
    21    22    24   ar
    22    17    25    1
    23    25    26   ar
    24    26    27   ar
    25    27    28   ar
    26    28    29   ar
    27    29    30    1
    28    29    31   ar
    29    16    10   ar
    30    24    18   ar
    31    31    25   ar
    32     6     9    1
    33     3     4    1
@<TRIPOS>MOLECULE
*****
 31 33 0 0 0
SMALL
GASTEIGER

@<TRIPOS>ATOM
      1 O          60.0011   87.9672   11.6373 O.2     1  UNL1       -0.2732
      2 C          61.3360   88.6514   11.6312 C.2     1  UNL1        0.2430
      3 N          62.5722   87.8806   11.2741 N.am    1  UNL1       -0.2972
      4 H          63.4483   88.3296   11.2701 H       1  UNL1        0.1500
      5 C          61.4347   90.1064   11.9821 C.3     1  UNL1        0.1759
      6 N          62.6000   90.6075   12.7827 N.am    1  UNL1       -0.2931
      7 C          63.7665   91.2471   12.0898 C.2     1  UNL1        0.2462
      8 O          63.7677   91.3856   10.5962 O.2     1  UNL1       -0.2701
      9 H          62.5992   90.5166   13.7630 H       1  UNL1        0.1502
     10 C          64.9318   91.7482   12.8904 C.ar    1  UNL1        0.0535
     11 C          65.3834   90.9976   14.1080 C.ar    1  UNL1        0.0068
     12 C          66.5487   91.4987   14.9086 C.ar    1  UNL1        0.0298
     13 C          67.2624   92.7504   14.4915 C.ar    1  UNL1        0.1401
     14 F          68.4278   93.2515   15.2922 F       1  UNL1       -0.2042
     15 C          66.8108   93.5010   13.2739 C.ar    1  UNL1        0.0298
     16 C          65.6455   92.9999   12.4734 C.ar    1  UNL1        0.0068
     17 C          62.4736   86.4255   10.9231 C.3     1  UNL1        0.1171
     18 C          62.0577   86.0136    9.5421 C.ar    1  UNL1        0.0019
     19 C          63.0291   85.3027    8.6471 C.ar    1  UNL1       -0.0022
     20 C          62.6133   84.8908    7.2659 C.ar    1  UNL1        0.0020
     21 C          61.2261   85.1898    6.7799 C.ar    1  UNL1        0.0296
     22 C          60.2547   85.9008    7.6749 C.ar    1  UNL1        0.1399
     23 F          58.8675   86.1998    7.1889 F       1  UNL1       -0.2042
     24 C          60.6706   86.3126    9.0560 C.ar    1  UNL1        0.0273
     25 C          62.7909   85.3824   11.9533 C.ar    1  UNL1        0.0019
     26 C          63.4544   85.7761   13.2397 C.ar    1  UNL1       -0.0022
     27 C          63.7717   84.7330   14.2698 C.ar    1  UNL1        0.0020
     28 C          63.4254   83.2961   14.0136 C.ar    1  UNL1        0.0296
     29 C          62.7618   82.9025   12.7273 C.ar    1  UNL1        0.1399
     30 F          62.4156   81.4657   12.4711 F       1  UNL1       -0.2042
     31 C          62.4446   83.9456   11.6971 C.ar    1  UNL1        0.0273
@<TRIPOS>BOND
     1     1     2    2
     2     2     5    1
     3     5     6    1
     4     6     7   am
     5     7     8    2
     6     7    10    1
     7    10    11   ar
     8    11    12   ar
     9    12    13   ar
    10    13    14    1
    11    13    15   ar
    12    15    16   ar
    13     2     3   am
    14     3    17    1
    15    17    18    1
    16    18    19   ar
    17    19    20   ar
    18    20    21   ar
    19    21    22   ar
    20    22    23    1
    21    22    24   ar
    22    17    25    1
    23    25    26   ar
    24    26    27   ar
    25    27    28   ar
    26    28    29   ar
    27    29    30    1
    28    29    31   ar
    29    16    10   ar
    30    24    18   ar
    31    31    25   ar
    32     6     9    1
    33     3     4    1
@<TRIPOS>MOLECULE
*****
 31 33 0 0 0
SMALL
GASTEIGER

@<TRIPOS>ATOM
      1 O          59.9632   87.8867   11.6133 O.2     1  UNL1       -0.2732
      2 C          61.2979   88.5673   11.6881 C.2     1  UNL1        0.2430
      3 N          62.5494   87.7998   11.3808 N.am    1  UNL1       -0.2972
      4 H          63.4254   88.2465   11.4300 H       1  UNL1        0.1500
      5 C          61.3809   90.0154   12.0703 C.3     1  UNL1        0.1759
      6 N          62.5735   90.5249   12.8241 N.am    1  UNL1       -0.2931
      7 C          63.6779   91.2292   12.0932 C.2     1  UNL1        0.2462
      8 O          63.5899   91.4238   10.6085 O.2     1  UNL1       -0.2701
      9 H          62.6313   90.3972   13.7986 H       1  UNL1        0.1502
     10 C          64.8705   91.7388   12.8470 C.ar    1  UNL1        0.0535
     11 C          65.3323   91.0318   14.0868 C.ar    1  UNL1        0.0068
     12 C          66.5248   91.5414   14.8405 C.ar    1  UNL1        0.0298
     13 C          67.2555   92.7579   14.3545 C.ar    1  UNL1        0.1401
     14 F          68.4481   93.2675   15.1084 F       1  UNL1       -0.2042
     15 C          66.7937   93.4649   13.1148 C.ar    1  UNL1        0.0298
     16 C          65.6012   92.9553   12.3611 C.ar    1  UNL1        0.0068
     17 C          62.4664   86.3516   10.9987 C.3     1  UNL1        0.1171
     18 C          62.0707   85.9654    9.6043 C.ar    1  UNL1        0.0019
     19 C          63.0515   85.2616    8.7141 C.ar    1  UNL1       -0.0022
     20 C          62.6558   84.8754    7.3197 C.ar    1  UNL1        0.0020
     21 C          61.2791   85.1930    6.8156 C.ar    1  UNL1        0.0296
     22 C          60.2983   85.8968    7.7060 C.ar    1  UNL1        0.1399
     23 F          58.9217   86.2144    7.2019 F       1  UNL1       -0.2042
     24 C          60.6941   86.2830    9.1003 C.ar    1  UNL1        0.0273
     25 C          62.7792   85.2897   12.0108 C.ar    1  UNL1        0.0019
     26 C          62.4648   83.8536   11.7128 C.ar    1  UNL1       -0.0022
     27 C          62.7776   82.7917   12.7250 C.ar    1  UNL1        0.0020
     28 C          63.4048   83.1659   14.0352 C.ar    1  UNL1        0.0296
     29 C          63.7192   84.6020   14.3332 C.ar    1  UNL1        0.1399
     30 F          64.3464   84.9762   15.6434 F       1  UNL1       -0.2042
     31 C          63.4064   85.6639   13.3210 C.ar    1  UNL1        0.0273
@<TRIPOS>BOND
     1     1     2    2
     2     2     5    1
     3     5     6    1
     4     6     7   am
     5     7     8    2
     6     7    10    1
     7    10    11   ar
     8    11    12   ar
     9    12    13   ar
    10    13    14    1
    11    13    15   ar
    12    15    16   ar
    13     2     3   am
    14     3    17    1
    15    17    18    1
    16    18    19   ar
    17    19    20   ar
    18    20    21   ar
    19    21    22   ar
    20    22    23    1
    21    22    24   ar
    22    17    25    1
    23    25    26   ar
    24    26    27   ar
    25    27    28   ar
    26    28    29   ar
    27    29    30    1
    28    29    31   ar
    29    16    10   ar
    30    24    18   ar
    31    31    25   ar
    32     6     9    1
    33     3     4    1
@<TRIPOS>MOLECULE
*****
 31 33 0 0 0
SMALL
GASTEIGER

@<TRIPOS>ATOM
      1 O          60.0162   87.9934   11.6205 O.2     1  UNL1       -0.2732
      2 C          61.3576   88.6646   11.6041 C.2     1  UNL1        0.2430
      3 N          62.5844   87.8801   11.2444 N.am    1  UNL1       -0.2972
      4 H          63.4648   88.3207   11.2336 H       1  UNL1        0.1500
      5 C          61.4721   90.1202   11.9475 C.3     1  UNL1        0.1759
      6 N          62.6337   90.6100   12.7604 N.am    1  UNL1       -0.2931
      7 C          63.7882   91.2892   12.0854 C.2     1  UNL1        0.2462
      8 O          63.7812   91.4787   10.5974 O.2     1  UNL1       -0.2701
      9 H          62.6384   90.4856   13.7370 H       1  UNL1        0.1502
     10 C          64.9499   91.7789   12.8983 C.ar    1  UNL1        0.0535
     11 C          65.6614   93.0397   12.5060 C.ar    1  UNL1        0.0068
     12 C          66.8230   93.5294   13.3189 C.ar    1  UNL1        0.0298
     13 C          67.2731   92.7582   14.5242 C.ar    1  UNL1        0.1401
     14 F          68.4347   93.2480   15.3371 F       1  UNL1       -0.2042
     15 C          66.5616   91.4974   14.9166 C.ar    1  UNL1        0.0298
     16 C          65.4000   91.0077   14.1036 C.ar    1  UNL1        0.0068
     17 C          62.4699   86.4244   10.9010 C.3     1  UNL1        0.1171
     18 C          62.7717   85.3833   11.9378 C.ar    1  UNL1        0.0019
     19 C          63.4269   85.7777   13.2281 C.ar    1  UNL1       -0.0022
     20 C          63.7286   84.7365   14.2650 C.ar    1  UNL1        0.0020
     21 C          63.3751   83.3010   14.0114 C.ar    1  UNL1        0.0296
     22 C          62.7199   82.9066   12.7210 C.ar    1  UNL1        0.1399
     23 F          62.3663   81.4711   12.4674 F       1  UNL1       -0.2042
     24 C          62.4181   83.9478   11.6842 C.ar    1  UNL1        0.0273
     25 C          62.0537   86.0099    9.5208 C.ar    1  UNL1        0.0019
     26 C          63.0246   85.2963    8.6272 C.ar    1  UNL1       -0.0022
     27 C          62.6084   84.8818    7.2470 C.ar    1  UNL1        0.0020
     28 C          61.2214   85.1809    6.7604 C.ar    1  UNL1        0.0296
     29 C          60.2506   85.8944    7.6539 C.ar    1  UNL1        0.1399
     30 F          58.8636   86.1935    7.1672 F       1  UNL1       -0.2042
     31 C          60.6668   86.3089    9.0341 C.ar    1  UNL1        0.0273
@<TRIPOS>BOND
     1     1     2    2
     2     2     5    1
     3     5     6    1
     4     6     7   am
     5     7     8    2
     6     7    10    1
     7    10    11   ar
     8    11    12   ar
     9    12    13   ar
    10    13    14    1
    11    13    15   ar
    12    15    16   ar
    13     2     3   am
    14     3    17    1
    15    17    18    1
    16    18    19   ar
    17    19    20   ar
    18    20    21   ar
    19    21    22   ar
    20    22    23    1
    21    22    24   ar
    22    17    25    1
    23    25    26   ar
    24    26    27   ar
    25    27    28   ar
    26    28    29   ar
    27    29    30    1
    28    29    31   ar
    29    16    10   ar
    30    24    18   ar
    31    31    25   ar
    32     6     9    1
    33     3     4    1
@<TRIPOS>MOLECULE
*****
 31 33 0 0 0
SMALL
GASTEIGER

@<TRIPOS>ATOM
      1 O          63.0064   88.8475   15.7269 O.2     1  UNL1       -0.2732
      2 C          63.6847   87.7660   14.9393 C.2     1  UNL1        0.2430
      3 N          64.0089   87.9838   13.4911 N.am    1  UNL1       -0.2972
      4 H          64.4541   87.2740   12.9742 H       1  UNL1        0.1500
      5 C          64.0388   86.4667   15.5999 C.3     1  UNL1        0.1759
      6 N          64.0163   85.1925   14.8088 N.am    1  UNL1       -0.2931
      7 C          62.7490   84.3969   14.7042 C.2     1  UNL1        0.2462
      8 O          61.5042   84.8755   15.3907 O.2     1  UNL1       -0.2701
      9 H          64.8333   84.8783   14.3582 H       1  UNL1        0.1502
     10 C          62.7265   83.1226   13.9131 C.ar    1  UNL1        0.0535
     11 C          63.4712   83.0330   12.6141 C.ar    1  UNL1        0.0068
     12 C          63.4487   81.7588   11.8230 C.ar    1  UNL1        0.0298
     13 C          62.6815   80.5741   12.3310 C.ar    1  UNL1        0.1401
     14 F          62.6591   79.2999   11.5398 F       1  UNL1       -0.2042
     15 C          61.9369   80.6637   13.6300 C.ar    1  UNL1        0.0298
     16 C          61.9594   81.9379   14.4210 C.ar    1  UNL1        0.0068
     17 C          63.6548   89.2831   12.8304 C.3     1  UNL1        0.1171
     18 C          62.4735   89.3586   11.9091 C.ar    1  UNL1        0.0019
     19 C          62.5164   88.6711   10.5767 C.ar    1  UNL1       -0.0022
     20 C          61.3350   88.7466    9.6554 C.ar    1  UNL1        0.0020
     21 C          60.1108   89.5096   10.0666 C.ar    1  UNL1        0.0296
     22 C          60.0679   90.1971   11.3991 C.ar    1  UNL1        0.1399
     23 F          58.8437   90.9601   11.8104 F       1  UNL1       -0.2042
     24 C          61.2493   90.1216   12.3204 C.ar    1  UNL1        0.0273
     25 C          64.4821   90.5069   13.0910 C.ar    1  UNL1        0.0019
     26 C          65.2382   90.6407   14.3796 C.ar    1  UNL1       -0.0022
     27 C          66.0655   91.8645   14.6402 C.ar    1  UNL1        0.0020
     28 C          66.1367   92.9545   13.6121 C.ar    1  UNL1        0.0296
     29 C          65.3807   92.8207   12.3236 C.ar    1  UNL1        0.1399
     30 F          65.4519   93.9107   11.2956 F       1  UNL1       -0.2042
     31 C          64.5534   91.5969   12.0630 C.ar    1  UNL1        0.0273
@<TRIPOS>BOND
     1     1     2    2
     2     2     5    1
     3     5     6    1
     4     6     7   am
     5     7     8    2
     6     7    10    1
     7    10    11   ar
     8    11    12   ar
     9    12    13   ar
    10    13    14    1
    11    13    15   ar
    12    15    16   ar
    13     2     3   am
    14     3    17    1
    15    17    18    1
    16    18    19   ar
    17    19    20   ar
    18    20    21   ar
    19    21    22   ar
    20    22    23    1
    21    22    24   ar
    22    17    25    1
    23    25    26   ar
    24    26    27   ar
    25    27    28   ar
    26    28    29   ar
    27    29    30    1
    28    29    31   ar
    29    16    10   ar
    30    24    18   ar
    31    31    25   ar
    32     6     9    1
    33     3     4    1
@<TRIPOS>MOLECULE
*****
 31 33 0 0 0
SMALL
GASTEIGER

@<TRIPOS>ATOM
      1 O          63.1407   88.9789   15.7118 O.2     1  UNL1       -0.2732
      2 C          63.7271   87.8575   14.9066 C.2     1  UNL1        0.2430
      3 N          63.9807   88.0404   13.4395 N.am    1  UNL1       -0.2972
      4 H          64.3656   87.3043   12.9110 H       1  UNL1        0.1500
      5 C          64.0599   86.5532   15.5683 C.3     1  UNL1        0.1759
      6 N          64.0316   85.2807   14.7745 N.am    1  UNL1       -0.2931
      7 C          62.7766   84.4612   14.7158 C.2     1  UNL1        0.2462
      8 O          61.5500   84.9141   15.4509 O.2     1  UNL1       -0.2701
      9 H          64.8366   84.9834   14.2920 H       1  UNL1        0.1502
     10 C          62.7482   83.1887   13.9220 C.ar    1  UNL1        0.0535
     11 C          62.0525   81.9781   14.4702 C.ar    1  UNL1        0.0068
     12 C          62.0241   80.7057   13.6764 C.ar    1  UNL1        0.0298
     13 C          62.6915   80.6439   12.3345 C.ar    1  UNL1        0.1401
     14 F          62.6631   79.3714   11.5407 F       1  UNL1       -0.2042
     15 C          63.3872   81.8544   11.7863 C.ar    1  UNL1        0.0298
     16 C          63.4156   83.1268   12.5801 C.ar    1  UNL1        0.0068
     17 C          63.6479   89.3447   12.7777 C.3     1  UNL1        0.1171
     18 C          64.4939   90.5555   13.0387 C.ar    1  UNL1        0.0019
     19 C          64.5756   91.6483   12.0144 C.ar    1  UNL1       -0.0022
     20 C          65.4217   92.8592   12.2754 C.ar    1  UNL1        0.0020
     21 C          66.1860   92.9772   13.5606 C.ar    1  UNL1        0.0296
     22 C          66.1043   91.8844   14.5849 C.ar    1  UNL1        0.1399
     23 F          66.8686   92.0024   15.8702 F       1  UNL1       -0.2042
     24 C          65.2583   90.6736   14.3239 C.ar    1  UNL1        0.0273
     25 C          62.4690   89.4382   11.8549 C.ar    1  UNL1        0.0019
     26 C          62.4978   88.7389   10.5282 C.ar    1  UNL1       -0.0022
     27 C          61.3189   88.8324    9.6054 C.ar    1  UNL1        0.0020
     28 C          60.1113   89.6252   10.0094 C.ar    1  UNL1        0.0296
     29 C          60.0825   90.3245   11.3361 C.ar    1  UNL1        0.1399
     30 F          58.8749   91.1172   11.7400 F       1  UNL1       -0.2042
     31 C          61.2614   90.2310   12.2588 C.ar    1  UNL1        0.0273
@<TRIPOS>BOND
     1     1     2    2
     2     2     5    1
     3     5     6    1
     4     6     7   am
     5     7     8    2
     6     7    10    1
     7    10    11   ar
     8    11    12   ar
     9    12    13   ar
    10    13    14    1
    11    13    15   ar
    12    15    16   ar
    13     2     3   am
    14     3    17    1
    15    17    18    1
    16    18    19   ar
    17    19    20   ar
    18    20    21   ar
    19    21    22   ar
    20    22    23    1
    21    22    24   ar
    22    17    25    1
    23    25    26   ar
    24    26    27   ar
    25    27    28   ar
    26    28    29   ar
    27    29    30    1
    28    29    31   ar
    29    16    10   ar
    30    24    18   ar
    31    31    25   ar
    32     6     9    1
    33     3     4    1
@<TRIPOS>MOLECULE
*****
 31 33 0 0 0
SMALL
GASTEIGER

@<TRIPOS>ATOM
      1 O          63.0959   88.8275   15.7779 O.2     1  UNL1       -0.2732
      2 C          63.7500   87.7406   14.9773 C.2     1  UNL1        0.2430
      3 N          64.0303   87.9487   13.5185 N.am    1  UNL1       -0.2972
      4 H          64.4596   87.2353   12.9931 H       1  UNL1        0.1500
      5 C          64.1236   86.4456   15.6355 C.3     1  UNL1        0.1759
      6 N          64.0838   85.1671   14.8519 N.am    1  UNL1       -0.2931
      7 C          62.8026   84.3950   14.7409 C.2     1  UNL1        0.2462
      8 O          61.5611   84.9014   15.4135 O.2     1  UNL1       -0.2701
      9 H          64.8986   84.8347   14.4104 H       1  UNL1        0.1502
     10 C          62.7627   83.1165   13.9573 C.ar    1  UNL1        0.0535
     11 C          61.9634   81.9520   14.4623 C.ar    1  UNL1        0.0068
     12 C          61.9236   80.6736   13.6787 C.ar    1  UNL1        0.0298
     13 C          62.6831   80.5597   12.3902 C.ar    1  UNL1        0.1401
     14 F          62.6433   79.2812   11.6066 F       1  UNL1       -0.2042
     15 C          63.4824   81.7242   11.8852 C.ar    1  UNL1        0.0298
     16 C          63.5222   83.0027   12.6688 C.ar    1  UNL1        0.0068
     17 C          63.6567   89.2438   12.8603 C.3     1  UNL1        0.1171
     18 C          62.4560   89.3103   11.9637 C.ar    1  UNL1        0.0019
     19 C          61.3156   90.2233   12.3039 C.ar    1  UNL1       -0.0022
     20 C          60.1148   90.2899   11.4073 C.ar    1  UNL1        0.0020
     21 C          60.0546   89.4434   10.1704 C.ar    1  UNL1        0.0296
     22 C          61.1951   88.5304    9.8302 C.ar    1  UNL1        0.1399
     23 F          61.1349   87.6839    8.5933 F       1  UNL1       -0.2042
     24 C          62.3958   88.4638   10.7268 C.ar    1  UNL1        0.0273
     25 C          64.4837   90.4722   13.0986 C.ar    1  UNL1        0.0019
     26 C          65.2647   90.6152   14.3713 C.ar    1  UNL1       -0.0022
     27 C          66.0918   91.8437   14.6097 C.ar    1  UNL1        0.0020
     28 C          66.1378   92.9292   13.5754 C.ar    1  UNL1        0.0296
     29 C          65.3568   92.7862   12.3028 C.ar    1  UNL1        0.1399
     30 F          65.4029   93.8716   11.2686 F       1  UNL1       -0.2042
     31 C          64.5298   91.5577   12.0644 C.ar    1  UNL1        0.0273
@<TRIPOS>BOND
     1     1     2    2
     2     2     5    1
     3     5     6    1
     4     6     7   am
     5     7     8    2
     6     7    10    1
     7    10    11   ar
     8    11    12   ar
     9    12    13   ar
    10    13    14    1
    11    13    15   ar
    12    15    16   ar
    13     2     3   am
    14     3    17    1
    15    17    18    1
    16    18    19   ar
    17    19    20   ar
    18    20    21   ar
    19    21    22   ar
    20    22    23    1
    21    22    24   ar
    22    17    25    1
    23    25    26   ar
    24    26    27   ar
    25    27    28   ar
    26    28    29   ar
    27    29    30    1
    28    29    31   ar
    29    16    10   ar
    30    24    18   ar
    31    31    25   ar
    32     6     9    1
    33     3     4    1
