@<TRIPOS>MOLECULE
*****
 31 35 0 0 0
SMALL
GASTEIGER

@<TRIPOS>ATOM
      1 C          62.9032   85.6201   11.9279 C.ar    1  UNL1        0.1706
      2 N          63.3098   86.4859   13.0833 N.ar    1  UNL1       -0.1279
      3 N          63.1522   87.9184   12.6671 N.ar    1  UNL1       -0.1218
      4 C          62.6482   87.9379   11.2544 C.ar    1  UNL1        0.1975
      5 N          62.4943   86.5175   10.7976 N.ar    1  UNL1       -0.2690
      6 F          62.9108   79.6207   11.8423 F       1  UNL1       -0.2042
      7 C          62.9089   81.1205   11.8637 C.ar    1  UNL1        0.1401
      8 C          62.2715   81.8535   13.0067 C.ar    1  UNL1        0.0297
      9 C          62.2696   83.3533   13.0281 C.ar    1  UNL1        0.0054
     10 C          62.9051   84.1202   11.9065 C.ar    1  UNL1        0.0364
     11 C          63.5424   83.3873   10.7635 C.ar    1  UNL1        0.0054
     12 C          63.5444   81.8874   10.7421 C.ar    1  UNL1        0.0297
     13 C          62.0156   86.0725    9.4474 C.ar    1  UNL1        0.0672
     14 C          60.5859   86.2909    9.0491 C.ar    1  UNL1        0.0176
     15 C          60.1072   85.8460    7.6990 C.ar    1  UNL1        0.0015
     16 C          61.0580   85.1828    6.7471 C.ar    1  UNL1        0.0001
     17 C          62.4876   84.9644    7.1454 C.ar    1  UNL1        0.0015
     18 C          62.9663   85.4093    8.4956 C.ar    1  UNL1        0.0176
     19 S          62.3504   89.1627   10.4414 S.3     1  UNL1       -0.0653
     20 C          62.2994   90.5080   11.1029 C.3     1  UNL1        0.1528
     21 C          63.5719   91.2092   11.4757 C.ar    1  UNL1        0.2480
     22 N          64.2667   91.1290   12.8026 N.ar    1  UNL1       -0.1900
     23 C          65.4973   91.9839   12.7339 C.ar    1  UNL1        0.2033
     24 N          65.5631   92.5925   11.3645 N.ar    1  UNL1       -0.0560
     25 O          64.3731   92.1137   10.5869 O.2     1  UNL1       -0.3361
     26 C          66.4882   92.1935   13.8404 C.ar    1  UNL1        0.0391
     27 C          66.0125   92.5739   15.2112 C.ar    1  UNL1        0.0032
     28 C          67.0034   92.7835   16.3176 C.ar    1  UNL1        0.0001
     29 C          68.4700   92.6126   16.0533 C.ar    1  UNL1        0.0000
     30 C          68.9457   92.2322   14.6825 C.ar    1  UNL1        0.0001
     31 C          67.9548   92.0226   13.5761 C.ar    1  UNL1        0.0032
@<TRIPOS>BOND
     1     6     7    1
     2     7     8   ar
     3     8     9   ar
     4     9    10   ar
     5    10     1    1
     6     1     2   ar
     7     2     3   ar
     8     3     4   ar
     9     4    19    1
    10    19    20    1
    11    20    21    1
    12    21    22   ar
    13    22    23   ar
    14    23    26    1
    15    26    27   ar
    16    27    28   ar
    17    28    29   ar
    18    29    30   ar
    19    30    31   ar
    20    23    24   ar
    21    24    25   ar
    22     4     5   ar
    23     5    13    1
    24    13    14   ar
    25    14    15   ar
    26    15    16   ar
    27    16    17   ar
    28    17    18   ar
    29    10    11   ar
    30    11    12   ar
    31    12     7   ar
    32     5     1   ar
    33    18    13   ar
    34    25    21   ar
    35    31    26   ar
@<TRIPOS>MOLECULE
*****
 31 35 0 0 0
SMALL
GASTEIGER

@<TRIPOS>ATOM
      1 C          63.1457   85.1869   12.4924 C.ar    1  UNL1        0.1706
      2 N          63.7006   85.8347   13.7262 N.ar    1  UNL1       -0.1279
      3 N          63.6232   87.3216   13.5440 N.ar    1  UNL1       -0.1218
      4 C          63.0205   87.5928   12.1974 C.ar    1  UNL1        0.1975
      5 N          62.7254   86.2735   11.5475 N.ar    1  UNL1       -0.2690
      6 F          62.6876   79.2858   11.5090 F       1  UNL1       -0.2042
      7 C          62.8021   80.7611   11.7548 C.ar    1  UNL1        0.1401
      8 C          63.4681   81.6412   10.7391 C.ar    1  UNL1        0.0297
      9 C          63.5826   83.1165   10.9849 C.ar    1  UNL1        0.0054
     10 C          63.0311   83.7116   12.2465 C.ar    1  UNL1        0.0364
     11 C          62.3652   82.8315   13.2623 C.ar    1  UNL1        0.0054
     12 C          62.2507   81.3562   13.0164 C.ar    1  UNL1        0.0297
     13 C          62.1168   86.0755   10.1909 C.ar    1  UNL1        0.0672
     14 C          60.7023   86.5038    9.9336 C.ar    1  UNL1        0.0176
     15 C          60.0937   86.3058    8.5770 C.ar    1  UNL1        0.0015
     16 C          60.8995   85.6797    7.4776 C.ar    1  UNL1        0.0001
     17 C          62.3138   85.2514    7.7349 C.ar    1  UNL1        0.0015
     18 C          62.9224   85.4494    9.0915 C.ar    1  UNL1        0.0176
     19 S          62.7589   88.9457   11.6048 S.3     1  UNL1       -0.0653
     20 C          62.6833   90.1518   12.4934 C.3     1  UNL1        0.1528
     21 C          63.7673   91.1874   12.4459 C.ar    1  UNL1        0.2480
     22 N          64.2895   91.8614   11.2117 N.ar    1  UNL1       -0.1900
     23 C          65.3645   92.8214   11.6273 C.ar    1  UNL1        0.2033
     24 N          65.5068   92.7407   13.1185 N.ar    1  UNL1       -0.0560
     25 O          64.5196   91.7309   13.6243 O.2     1  UNL1       -0.3361
     26 C          66.1579   93.7066   10.7125 C.ar    1  UNL1        0.0391
     27 C          65.8254   95.1654   10.6060 C.ar    1  UNL1        0.0032
     28 C          66.6188   96.0506    9.6912 C.ar    1  UNL1        0.0001
     29 C          67.7448   95.4770    8.8830 C.ar    1  UNL1        0.0000
     30 C          68.0773   94.0182    8.9896 C.ar    1  UNL1        0.0001
     31 C          67.2839   93.1330    9.9043 C.ar    1  UNL1        0.0032
@<TRIPOS>BOND
     1     6     7    1
     2     7     8   ar
     3     8     9   ar
     4     9    10   ar
     5    10     1    1
     6     1     2   ar
     7     2     3   ar
     8     3     4   ar
     9     4    19    1
    10    19    20    1
    11    20    21    1
    12    21    22   ar
    13    22    23   ar
    14    23    26    1
    15    26    27   ar
    16    27    28   ar
    17    28    29   ar
    18    29    30   ar
    19    30    31   ar
    20    23    24   ar
    21    24    25   ar
    22     4     5   ar
    23     5    13    1
    24    13    14   ar
    25    14    15   ar
    26    15    16   ar
    27    16    17   ar
    28    17    18   ar
    29    10    11   ar
    30    11    12   ar
    31    12     7   ar
    32     5     1   ar
    33    18    13   ar
    34    25    21   ar
    35    31    26   ar
@<TRIPOS>MOLECULE
*****
 31 35 0 0 0
SMALL
GASTEIGER

@<TRIPOS>ATOM
      1 C          65.0271   91.6270   12.8004 C.ar    1  UNL1        0.1706
      2 N          64.8042   92.3112   11.4842 N.ar    1  UNL1       -0.1279
      3 N          63.5964   91.6968   10.8410 N.ar    1  UNL1       -0.1218
      4 C          63.0728   90.6329   11.7596 C.ar    1  UNL1        0.1975
      5 N          63.9570   90.5898   12.9705 N.ar    1  UNL1       -0.2690
      6 F          69.4263   92.8284   16.6995 F       1  UNL1       -0.2042
      7 C          68.3265   92.5281   15.7247 C.ar    1  UNL1        0.1401
      8 C          66.8933   92.6699   16.1439 C.ar    1  UNL1        0.0297
      9 C          65.7935   92.3696   15.1691 C.ar    1  UNL1        0.0054
     10 C          66.1269   91.9274   13.7751 C.ar    1  UNL1        0.0364
     11 C          67.5601   91.7855   13.3559 C.ar    1  UNL1        0.0054
     12 C          68.6599   92.0859   14.3307 C.ar    1  UNL1        0.0297
     13 C          63.7988   89.6707   14.1454 C.ar    1  UNL1        0.0672
     14 C          64.2281   88.2373   14.0395 C.ar    1  UNL1        0.0176
     15 C          64.0699   87.3183   15.2144 C.ar    1  UNL1        0.0015
     16 C          63.4824   87.8325   16.4952 C.ar    1  UNL1        0.0001
     17 C          63.0531   89.2659   16.6010 C.ar    1  UNL1        0.0015
     18 C          63.2113   90.1849   15.4262 C.ar    1  UNL1        0.0176
     19 S          61.8752   89.7645   11.5110 S.3     1  UNL1       -0.0653
     20 C          61.8038   88.9222   10.2719 C.3     1  UNL1        0.1528
     21 C          62.1192   87.4574   10.3416 C.ar    1  UNL1        0.2480
     22 N          62.1459   86.6195   11.5854 N.ar    1  UNL1       -0.1900
     23 C          62.5065   85.2176   11.1923 C.ar    1  UNL1        0.2033
     24 N          62.7026   85.1890    9.7054 N.ar    1  UNL1       -0.0560
     25 O          62.4632   86.5734    9.1797 O.2     1  UNL1       -0.3361
     26 C          62.6464   84.0493   12.1226 C.ar    1  UNL1        0.0391
     27 C          62.6416   84.2675   13.6067 C.ar    1  UNL1        0.0032
     28 C          62.7815   83.0993   14.5370 C.ar    1  UNL1        0.0001
     29 C          62.9262   81.7127   13.9833 C.ar    1  UNL1        0.0000
     30 C          62.9310   81.4945   12.4993 C.ar    1  UNL1        0.0001
     31 C          62.7910   82.6628   11.5689 C.ar    1  UNL1        0.0032
@<TRIPOS>BOND
     1     6     7    1
     2     7     8   ar
     3     8     9   ar
     4     9    10   ar
     5    10     1    1
     6     1     2   ar
     7     2     3   ar
     8     3     4   ar
     9     4    19    1
    10    19    20    1
    11    20    21    1
    12    21    22   ar
    13    22    23   ar
    14    23    26    1
    15    26    27   ar
    16    27    28   ar
    17    28    29   ar
    18    29    30   ar
    19    30    31   ar
    20    23    24   ar
    21    24    25   ar
    22     4     5   ar
    23     5    13    1
    24    13    14   ar
    25    14    15   ar
    26    15    16   ar
    27    16    17   ar
    28    17    18   ar
    29    10    11   ar
    30    11    12   ar
    31    12     7   ar
    32     5     1   ar
    33    18    13   ar
    34    25    21   ar
    35    31    26   ar
@<TRIPOS>MOLECULE
*****
 31 35 0 0 0
SMALL
GASTEIGER

@<TRIPOS>ATOM
      1 C          64.9438   92.1926   11.5364 C.ar    1  UNL1        0.1706
      2 N          63.7152   91.5262   10.9919 N.ar    1  UNL1       -0.1279
      3 N          63.2000   90.5799   12.0354 N.ar    1  UNL1       -0.1218
      4 C          64.1102   90.6614   13.2249 C.ar    1  UNL1        0.1975
      5 N          65.1879   91.6581   12.9165 N.ar    1  UNL1       -0.2690
      6 F          68.2936   96.2788    8.6935 F       1  UNL1       -0.2042
      7 C          67.4561   95.2572    9.4042 C.ar    1  UNL1        0.1401
      8 C          66.2412   95.6863   10.1722 C.ar    1  UNL1        0.0297
      9 C          65.4038   94.6647   10.8830 C.ar    1  UNL1        0.0054
     10 C          65.7812   93.2142   10.8257 C.ar    1  UNL1        0.0364
     11 C          66.9961   92.7851   10.0577 C.ar    1  UNL1        0.0054
     12 C          67.8336   93.8067    9.3469 C.ar    1  UNL1        0.0297
     13 C          66.3123   92.0512   13.8282 C.ar    1  UNL1        0.0672
     14 C          66.0163   92.7077   15.1442 C.ar    1  UNL1        0.0176
     15 C          67.1407   93.1009   16.0559 C.ar    1  UNL1        0.0015
     16 C          68.5610   92.8376   15.6517 C.ar    1  UNL1        0.0001
     17 C          68.8569   92.1811   14.3359 C.ar    1  UNL1        0.0015
     18 C          67.7325   91.7880   13.4242 C.ar    1  UNL1        0.0176
     19 S          63.9677   89.8828   14.4991 S.3     1  UNL1       -0.0653
     20 C          64.5115   88.4878   14.5905 C.3     1  UNL1        0.1528
     21 C          63.8737   87.3813   13.8040 C.ar    1  UNL1        0.2480
     22 N          63.8753   85.9262   14.1683 N.ar    1  UNL1       -0.1900
     23 C          63.1249   85.1811   13.1045 C.ar    1  UNL1        0.2033
     24 N          62.6596   86.1758   12.0825 N.ar    1  UNL1       -0.0560
     25 O          63.1224   87.5355   12.5149 O.2     1  UNL1       -0.3361
     26 C          62.8825   83.7013   13.0687 C.ar    1  UNL1        0.0391
     27 C          63.2045   82.9182   11.8305 C.ar    1  UNL1        0.0032
     28 C          62.9620   81.4384   11.7947 C.ar    1  UNL1        0.0001
     29 C          62.3976   80.7416   12.9972 C.ar    1  UNL1        0.0000
     30 C          62.0756   81.5247   14.2354 C.ar    1  UNL1        0.0001
     31 C          62.3181   83.0045   14.2712 C.ar    1  UNL1        0.0032
@<TRIPOS>BOND
     1     6     7    1
     2     7     8   ar
     3     8     9   ar
     4     9    10   ar
     5    10     1    1
     6     1     2   ar
     7     2     3   ar
     8     3     4   ar
     9     4    19    1
    10    19    20    1
    11    20    21    1
    12    21    22   ar
    13    22    23   ar
    14    23    26    1
    15    26    27   ar
    16    27    28   ar
    17    28    29   ar
    18    29    30   ar
    19    30    31   ar
    20    23    24   ar
    21    24    25   ar
    22     4     5   ar
    23     5    13    1
    24    13    14   ar
    25    14    15   ar
    26    15    16   ar
    27    16    17   ar
    28    17    18   ar
    29    10    11   ar
    30    11    12   ar
    31    12     7   ar
    32     5     1   ar
    33    18    13   ar
    34    25    21   ar
    35    31    26   ar
@<TRIPOS>MOLECULE
*****
 31 35 0 0 0
SMALL
GASTEIGER

@<TRIPOS>ATOM
      1 C          63.0676   85.2277   12.2917 C.ar    1  UNL1        0.1706
      2 N          63.5761   85.9315   13.5148 N.ar    1  UNL1       -0.1279
      3 N          63.4834   87.4088   13.2718 N.ar    1  UNL1       -0.1218
      4 C          62.9177   87.6180   11.8985 C.ar    1  UNL1        0.1975
      5 N          62.6607   86.2700   11.2927 N.ar    1  UNL1       -0.2690
      6 F          62.7221   79.2864   11.5288 F       1  UNL1       -0.2042
      7 C          62.8084   80.7717   11.7195 C.ar    1  UNL1        0.1401
      8 C          62.2326   81.4044   12.9516 C.ar    1  UNL1        0.0297
      9 C          62.3190   82.8898   13.1423 C.ar    1  UNL1        0.0054
     10 C          62.9812   83.7424   12.1010 C.ar    1  UNL1        0.0364
     11 C          63.5571   83.1097   10.8689 C.ar    1  UNL1        0.0054
     12 C          63.4707   81.6243   10.6782 C.ar    1  UNL1        0.0297
     13 C          62.0960   86.0101    9.9276 C.ar    1  UNL1        0.0672
     14 C          62.9529   85.3822    8.8685 C.ar    1  UNL1        0.0176
     15 C          62.3882   85.1222    7.5034 C.ar    1  UNL1        0.0015
     16 C          60.9666   85.4901    7.1973 C.ar    1  UNL1        0.0001
     17 C          60.1097   86.1180    8.2564 C.ar    1  UNL1        0.0015
     18 C          60.6744   86.3779    9.6215 C.ar    1  UNL1        0.0176
     19 S          62.6550   88.9426   11.2455 S.3     1  UNL1       -0.0653
     20 C          62.2978   90.1343   12.0836 C.3     1  UNL1        0.1528
     21 C          63.2023   90.5641   13.2002 C.ar    1  UNL1        0.2480
     22 N          64.5924   91.1070   13.0496 N.ar    1  UNL1       -0.1900
     23 C          65.1248   91.4049   14.4200 C.ar    1  UNL1        0.2033
     24 N          64.0635   91.0460   15.4176 N.ar    1  UNL1       -0.0560
     25 O          62.8754   90.5264   14.6637 O.2     1  UNL1       -0.3361
     26 C          66.4803   91.9635   14.7371 C.ar    1  UNL1        0.0391
     27 C          67.6226   91.7428   13.7903 C.ar    1  UNL1        0.0032
     28 C          68.9781   92.3014   14.1075 C.ar    1  UNL1        0.0001
     29 C          69.1913   93.0807   15.3714 C.ar    1  UNL1        0.0000
     30 C          68.0489   93.3013   16.3181 C.ar    1  UNL1        0.0001
     31 C          66.6934   92.7427   16.0010 C.ar    1  UNL1        0.0032
@<TRIPOS>BOND
     1     6     7    1
     2     7     8   ar
     3     8     9   ar
     4     9    10   ar
     5    10     1    1
     6     1     2   ar
     7     2     3   ar
     8     3     4   ar
     9     4    19    1
    10    19    20    1
    11    20    21    1
    12    21    22   ar
    13    22    23   ar
    14    23    26    1
    15    26    27   ar
    16    27    28   ar
    17    28    29   ar
    18    29    30   ar
    19    30    31   ar
    20    23    24   ar
    21    24    25   ar
    22     4     5   ar
    23     5    13    1
    24    13    14   ar
    25    14    15   ar
    26    15    16   ar
    27    16    17   ar
    28    17    18   ar
    29    10    11   ar
    30    11    12   ar
    31    12     7   ar
    32     5     1   ar
    33    18    13   ar
    34    25    21   ar
    35    31    26   ar
@<TRIPOS>MOLECULE
*****
 31 35 0 0 0
SMALL
GASTEIGER

@<TRIPOS>ATOM
      1 C          65.5300   92.2052   13.5066 C.ar    1  UNL1        0.1706
      2 N          65.9071   92.6626   14.8845 N.ar    1  UNL1       -0.1279
      3 N          65.0313   91.9437   15.8674 N.ar    1  UNL1       -0.1218
      4 C          64.1129   91.0420   15.0970 C.ar    1  UNL1        0.1975
      5 N          64.4211   91.2037   13.6380 N.ar    1  UNL1       -0.2690
      6 F          68.0198   94.0570    8.3713 F       1  UNL1       -0.2042
      7 C          67.3974   93.5941    9.6551 C.ar    1  UNL1        0.1401
      8 C          66.3363   94.4231   10.3159 C.ar    1  UNL1        0.0297
      9 C          65.7138   93.9602   11.5997 C.ar    1  UNL1        0.0054
     10 C          66.1525   92.6682   12.2228 C.ar    1  UNL1        0.0364
     11 C          67.2136   91.8391   11.5620 C.ar    1  UNL1        0.0054
     12 C          67.8360   92.3021   10.2782 C.ar    1  UNL1        0.0297
     13 C          63.7400   90.4892   12.5085 C.ar    1  UNL1        0.0672
     14 C          63.4097   89.0313   12.6339 C.ar    1  UNL1        0.0176
     15 C          62.7286   88.3168   11.5044 C.ar    1  UNL1        0.0015
     16 C          62.3778   89.0601   10.2497 C.ar    1  UNL1        0.0001
     17 C          62.7081   90.5179   10.1244 C.ar    1  UNL1        0.0015
     18 C          63.3892   91.2324   11.2538 C.ar    1  UNL1        0.0176
     19 S          63.0695   90.1375   15.6828 S.3     1  UNL1       -0.0653
     20 C          63.4553   89.1122   16.7075 C.3     1  UNL1        0.1528
     21 C          63.0958   87.6711   16.4987 C.ar    1  UNL1        0.2480
     22 N          63.6122   86.7828   15.4059 N.ar    1  UNL1       -0.1900
     23 C          62.9922   85.4278   15.5779 C.ar    1  UNL1        0.2033
     24 N          62.0925   85.4786   16.7771 N.ar    1  UNL1       -0.0560
     25 O          62.1566   86.8650   17.3462 O.2     1  UNL1       -0.3361
     26 C          63.2301   84.2320   14.7042 C.ar    1  UNL1        0.0391
     27 C          64.2764   84.2839   13.6305 C.ar    1  UNL1        0.0032
     28 C          64.5142   83.0880   12.7567 C.ar    1  UNL1        0.0001
     29 C          63.7058   81.8404   12.9567 C.ar    1  UNL1        0.0000
     30 C          62.6596   81.7886   14.0303 C.ar    1  UNL1        0.0001
     31 C          62.4218   82.9844   14.9041 C.ar    1  UNL1        0.0032
@<TRIPOS>BOND
     1     6     7    1
     2     7     8   ar
     3     8     9   ar
     4     9    10   ar
     5    10     1    1
     6     1     2   ar
     7     2     3   ar
     8     3     4   ar
     9     4    19    1
    10    19    20    1
    11    20    21    1
    12    21    22   ar
    13    22    23   ar
    14    23    26    1
    15    26    27   ar
    16    27    28   ar
    17    28    29   ar
    18    29    30   ar
    19    30    31   ar
    20    23    24   ar
    21    24    25   ar
    22     4     5   ar
    23     5    13    1
    24    13    14   ar
    25    14    15   ar
    26    15    16   ar
    27    16    17   ar
    28    17    18   ar
    29    10    11   ar
    30    11    12   ar
    31    12     7   ar
    32     5     1   ar
    33    18    13   ar
    34    25    21   ar
    35    31    26   ar
@<TRIPOS>MOLECULE
*****
 31 35 0 0 0
SMALL
GASTEIGER

@<TRIPOS>ATOM
      1 C          64.9414   92.2540   11.5091 C.ar    1  UNL1        0.1706
      2 N          63.6911   91.6151   10.9813 N.ar    1  UNL1       -0.1279
      3 N          63.1727   90.6754   12.0292 N.ar    1  UNL1       -0.1218
      4 C          64.1026   90.7335   13.2047 C.ar    1  UNL1        0.1975
      5 N          65.1957   91.7091   12.8832 N.ar    1  UNL1       -0.2690
      6 F          68.3302   96.2817    8.6292 F       1  UNL1       -0.2042
      7 C          67.4830   95.2747    9.3492 C.ar    1  UNL1        0.1401
      8 C          67.8532   93.8216    9.3150 C.ar    1  UNL1        0.0297
      9 C          67.0060   92.8146   10.0350 C.ar    1  UNL1        0.0054
     10 C          65.7886   93.2609   10.7891 C.ar    1  UNL1        0.0364
     11 C          65.4184   94.7140   10.8233 C.ar    1  UNL1        0.0054
     12 C          66.2656   95.7210   10.1033 C.ar    1  UNL1        0.0297
     13 C          66.3419   92.0755   13.7788 C.ar    1  UNL1        0.0672
     14 C          66.0812   92.7519   15.0920 C.ar    1  UNL1        0.0176
     15 C          67.2274   93.1183   15.9876 C.ar    1  UNL1        0.0015
     16 C          68.6343   92.8083   15.5699 C.ar    1  UNL1        0.0001
     17 C          68.8950   92.1318   14.2568 C.ar    1  UNL1        0.0015
     18 C          67.7488   91.7655   13.3612 C.ar    1  UNL1        0.0176
     19 S          63.9639   89.9530   14.4782 S.3     1  UNL1       -0.0653
     20 C          64.3865   88.5146   14.5261 C.3     1  UNL1        0.1528
     21 C          63.7450   87.5136   13.6115 C.ar    1  UNL1        0.2480
     22 N          63.1581   87.8019   12.2616 N.ar    1  UNL1       -0.1900
     23 C          62.6281   86.5150   11.7021 C.ar    1  UNL1        0.2033
     24 N          62.8874   85.4313   12.7063 N.ar    1  UNL1       -0.0560
     25 O          63.5777   86.0485   13.8864 O.2     1  UNL1       -0.3361
     26 C          61.9566   86.3421   10.3719 C.ar    1  UNL1        0.0391
     27 C          60.5949   86.9261   10.1376 C.ar    1  UNL1        0.0032
     28 C          59.9235   86.7532    8.8075 C.ar    1  UNL1        0.0001
     29 C          60.6137   85.9963    7.7117 C.ar    1  UNL1        0.0000
     30 C          61.9754   85.4124    7.9460 C.ar    1  UNL1        0.0001
     31 C          62.6468   85.5853    9.2761 C.ar    1  UNL1        0.0032
@<TRIPOS>BOND
     1     6     7    1
     2     7     8   ar
     3     8     9   ar
     4     9    10   ar
     5    10     1    1
     6     1     2   ar
     7     2     3   ar
     8     3     4   ar
     9     4    19    1
    10    19    20    1
    11    20    21    1
    12    21    22   ar
    13    22    23   ar
    14    23    26    1
    15    26    27   ar
    16    27    28   ar
    17    28    29   ar
    18    29    30   ar
    19    30    31   ar
    20    23    24   ar
    21    24    25   ar
    22     4     5   ar
    23     5    13    1
    24    13    14   ar
    25    14    15   ar
    26    15    16   ar
    27    16    17   ar
    28    17    18   ar
    29    10    11   ar
    30    11    12   ar
    31    12     7   ar
    32     5     1   ar
    33    18    13   ar
    34    25    21   ar
    35    31    26   ar
@<TRIPOS>MOLECULE
*****
 31 35 0 0 0
SMALL
GASTEIGER

@<TRIPOS>ATOM
      1 C          62.1939   88.4987   10.3059 C.ar    1  UNL1        0.1706
      2 N          62.0620   89.9707   10.0495 N.ar    1  UNL1       -0.1279
      3 N          62.4809   90.6973   11.2931 N.ar    1  UNL1       -0.1218
      4 C          62.8717   89.6743   12.3182 C.ar    1  UNL1        0.1975
      5 N          62.6943   88.3155   11.7081 N.ar    1  UNL1       -0.2690
      6 F          60.9401   84.1134    6.4076 F       1  UNL1       -0.2042
      7 C          61.2536   85.2097    7.3822 C.ar    1  UNL1        0.1401
      8 C          62.6438   85.3545    7.9265 C.ar    1  UNL1        0.0297
      9 C          62.9572   86.4508    8.9011 C.ar    1  UNL1        0.0054
     10 C          61.8805   87.4023    9.3314 C.ar    1  UNL1        0.0364
     11 C          60.4903   87.2575    8.7871 C.ar    1  UNL1        0.0054
     12 C          60.1768   86.1612    7.8125 C.ar    1  UNL1        0.0297
     13 C          62.9692   87.0038   12.3818 C.ar    1  UNL1        0.0672
     14 C          63.8591   86.9523   13.5883 C.ar    1  UNL1        0.0176
     15 C          64.1339   85.6406   14.2621 C.ar    1  UNL1        0.0015
     16 C          63.5189   84.3805   13.7295 C.ar    1  UNL1        0.0001
     17 C          62.6290   84.4320   12.5231 C.ar    1  UNL1        0.0015
     18 C          62.3542   85.7437   11.8493 C.ar    1  UNL1        0.0176
     19 S          63.3550   89.9599   13.7092 S.3     1  UNL1       -0.0653
     20 C          64.7959   90.3022   13.9471 C.3     1  UNL1        0.1528
     21 C          65.3102   91.6670   13.5967 C.ar    1  UNL1        0.2480
     22 N          65.5864   92.1769   12.2134 N.ar    1  UNL1       -0.1900
     23 C          66.0855   93.5866   12.3299 C.ar    1  UNL1        0.2033
     24 N          66.1177   93.9481   13.7855 N.ar    1  UNL1       -0.0560
     25 O          65.6386   92.7616   14.5683 O.2     1  UNL1       -0.3361
     26 C          66.4826   94.4784   11.1910 C.ar    1  UNL1        0.0391
     27 C          67.2239   93.9105   10.0171 C.ar    1  UNL1        0.0032
     28 C          67.6210   94.8023    8.8782 C.ar    1  UNL1        0.0001
     29 C          67.2768   96.2619    8.9133 C.ar    1  UNL1        0.0000
     30 C          66.5355   96.8297   10.0872 C.ar    1  UNL1        0.0001
     31 C          66.1384   95.9379   11.2260 C.ar    1  UNL1        0.0032
@<TRIPOS>BOND
     1     6     7    1
     2     7     8   ar
     3     8     9   ar
     4     9    10   ar
     5    10     1    1
     6     1     2   ar
     7     2     3   ar
     8     3     4   ar
     9     4    19    1
    10    19    20    1
    11    20    21    1
    12    21    22   ar
    13    22    23   ar
    14    23    26    1
    15    26    27   ar
    16    27    28   ar
    17    28    29   ar
    18    29    30   ar
    19    30    31   ar
    20    23    24   ar
    21    24    25   ar
    22     4     5   ar
    23     5    13    1
    24    13    14   ar
    25    14    15   ar
    26    15    16   ar
    27    16    17   ar
    28    17    18   ar
    29    10    11   ar
    30    11    12   ar
    31    12     7   ar
    32     5     1   ar
    33    18    13   ar
    34    25    21   ar
    35    31    26   ar
@<TRIPOS>MOLECULE
*****
 31 35 0 0 0
SMALL
GASTEIGER

@<TRIPOS>ATOM
      1 C          62.5940   86.3091   10.7822 C.ar    1  UNL1        0.1706
      2 N          62.7104   87.7226   11.2706 N.ar    1  UNL1       -0.1279
      3 N          63.2078   87.6849   12.6852 N.ar    1  UNL1       -0.1218
      4 C          63.3990   86.2481   13.0711 C.ar    1  UNL1        0.1975
      5 N          63.0196   85.3978   11.8950 N.ar    1  UNL1       -0.2690
      6 F          60.7502   84.6005    5.3342 F       1  UNL1       -0.2042
      7 C          61.2112   85.0276    6.6962 C.ar    1  UNL1        0.1401
      8 C          60.2517   85.6919    7.6386 C.ar    1  UNL1        0.0297
      9 C          60.7127   86.1191    9.0006 C.ar    1  UNL1        0.0054
     10 C          62.1331   85.8820    9.4202 C.ar    1  UNL1        0.0364
     11 C          63.0925   85.2177    8.4779 C.ar    1  UNL1        0.0054
     12 C          62.6316   84.7905    7.1159 C.ar    1  UNL1        0.0297
     13 C          63.0590   83.8993   11.8412 C.ar    1  UNL1        0.0672
     14 C          63.8157   83.2077   10.7461 C.ar    1  UNL1        0.0176
     15 C          63.8551   81.7092   10.6923 C.ar    1  UNL1        0.0015
     16 C          63.1378   80.9022   11.7336 C.ar    1  UNL1        0.0001
     17 C          62.3811   81.5938   12.8286 C.ar    1  UNL1        0.0015
     18 C          62.3418   83.0923   12.8824 C.ar    1  UNL1        0.0176
     19 S          63.8843   85.7491   14.3999 S.3     1  UNL1       -0.0653
     20 C          63.5949   86.5319   15.6462 C.3     1  UNL1        0.1528
     21 C          63.7039   88.0279   15.6345 C.ar    1  UNL1        0.2480
     22 N          64.6260   88.8380   14.7722 N.ar    1  UNL1       -0.1900
     23 C          64.4019   90.2872   15.0877 C.ar    1  UNL1        0.2033
     24 N          63.3412   90.3728   16.1451 N.ar    1  UNL1       -0.0560
     25 O          62.9099   88.9764   16.4829 O.2     1  UNL1       -0.3361
     26 C          65.1134   91.4472   14.4568 C.ar    1  UNL1        0.0391
     27 C          64.9130   91.7481   13.0009 C.ar    1  UNL1        0.0032
     28 C          65.6246   92.9081   12.3700 C.ar    1  UNL1        0.0001
     29 C          66.5365   93.7672   13.1948 C.ar    1  UNL1        0.0000
     30 C          66.7368   93.4664   14.6506 C.ar    1  UNL1        0.0001
     31 C          66.0253   92.3064   15.2816 C.ar    1  UNL1        0.0032
@<TRIPOS>BOND
     1     6     7    1
     2     7     8   ar
     3     8     9   ar
     4     9    10   ar
     5    10     1    1
     6     1     2   ar
     7     2     3   ar
     8     3     4   ar
     9     4    19    1
    10    19    20    1
    11    20    21    1
    12    21    22   ar
    13    22    23   ar
    14    23    26    1
    15    26    27   ar
    16    27    28   ar
    17    28    29   ar
    18    29    30   ar
    19    30    31   ar
    20    23    24   ar
    21    24    25   ar
    22     4     5   ar
    23     5    13    1
    24    13    14   ar
    25    14    15   ar
    26    15    16   ar
    27    16    17   ar
    28    17    18   ar
    29    10    11   ar
    30    11    12   ar
    31    12     7   ar
    32     5     1   ar
    33    18    13   ar
    34    25    21   ar
    35    31    26   ar
