@<TRIPOS>MOLECULE
*****
 36 39 0 0 0
SMALL
GASTEIGER

@<TRIPOS>ATOM
      1 N          64.8162   89.6563   15.1792 N.am    1  UNL1       -0.2681
      2 C          64.3535   88.3673   14.5673 C.2     1  UNL1        0.3082
      3 O          64.2412   88.2424   13.0767 O.2     1  UNL1       -0.2522
      4 N          64.0029   87.2033   15.4461 N.am    1  UNL1       -0.2681
      5 H          64.8899   89.7383   16.1575 H       1  UNL1        0.1564
      6 H          64.0765   87.2853   16.4244 H       1  UNL1        0.1564
      7 C          65.8679   93.1484   12.5430 C.ar    1  UNL1        0.0179
      8 C          66.7189   92.8256   13.7352 C.ar    1  UNL1        0.0028
      9 C          66.3684   91.6616   14.6140 C.ar    1  UNL1        0.0148
     10 C          65.1668   90.8203   14.3005 C.ar    1  UNL1        0.0516
     11 C          64.3157   91.1431   13.1082 C.ar    1  UNL1        0.0148
     12 C          64.6662   92.3072   12.2295 C.ar    1  UNL1        0.0028
     13 C          67.5272   91.4705   10.3679 C.3     1  UNL1        0.0328
     14 C          67.6316   92.8620    9.8177 C.ar    1  UNL1        0.0017
     15 C          68.3508   93.2626    8.5637 C.ar    1  UNL1        0.0964
     16 N          68.1988   94.7455    8.3959 N.ar    1  UNL1       -0.2272
     17 C          67.3859   95.2613    9.5461 C.ar    1  UNL1        0.1428
     18 N          66.9195   96.6405    9.9069 N.ar    1  UNL1       -0.3215
     19 C          66.1026   96.8557   11.1464 C.ar    1  UNL1        0.1760
     20 N          65.7520   95.6917   12.0251 N.ar    1  UNL1       -0.2255
     21 C          66.2184   94.3124   11.6643 C.ar    1  UNL1        0.0856
     22 C          67.0353   94.0973   10.4249 C.ar    1  UNL1        0.0492
     23 H          67.1496   97.4045    9.3302 H       1  UNL1        0.1689
     24 C          63.5401   85.9143   14.8341 C.ar    1  UNL1        0.0517
     25 C          63.2971   84.7162   15.7033 C.ar    1  UNL1        0.0147
     26 C          62.8343   83.4272   15.0914 C.ar    1  UNL1        0.0014
     27 C          62.6146   83.3363   13.6103 C.ar    1  UNL1        0.0046
     28 C          62.8577   84.5345   12.7412 C.ar    1  UNL1        0.0546
     29 C          63.3205   85.8235   13.3531 C.ar    1  UNL1        0.0192
     30 C          62.6380   84.4437   11.2601 C.2     1  UNL1        0.2458
     31 O          62.8408   83.1379   10.5505 O.2     1  UNL1       -0.2701
     32 N          62.2155   85.6588   10.4887 N.am    1  UNL1       -0.3025
     33 H          62.0824   86.5159   10.9544 H       1  UNL1        0.1497
     34 C          61.9959   85.5680    9.0076 C.3     1  UNL1        0.0720
     35 C          60.6683   85.9477    8.4217 C.3     1  UNL1        0.0213
     36 C          63.1038   85.0975    8.1126 C.3     1  UNL1        0.0213
@<TRIPOS>BOND
     1    13    14    1
     2    14    15   ar
     3    15    16   ar
     4    16    17   ar
     5    17    18   ar
     6    18    19   ar
     7    19    20   ar
     8    20    21   ar
     9    21     7    1
    10     7     8   ar
    11     8     9   ar
    12     9    10   ar
    13    10     1    1
    14     1     2   am
    15     2     3    2
    16     2     4   am
    17     4    24    1
    18    24    25   ar
    19    25    26   ar
    20    26    27   ar
    21    27    28   ar
    22    28    30    1
    23    30    31    2
    24    30    32   am
    25    32    34    1
    26    34    35    1
    27    34    36    1
    28    28    29   ar
    29    10    11   ar
    30    11    12   ar
    31    21    22   ar
    32    22    14   ar
    33    22    17    1
    34    12     7   ar
    35    29    24   ar
    36    18    23    1
    37     1     5    1
    38     4     6    1
    39    32    33    1
@<TRIPOS>MOLECULE
*****
 36 39 0 0 0
SMALL
GASTEIGER

@<TRIPOS>ATOM
      1 N          59.4588   92.1067    4.2460 N.am    1  UNL1       -0.2681
      2 C          59.8949   91.0391    5.2052 C.2     1  UNL1        0.3082
      3 O          61.3182   90.5654    5.2036 O.2     1  UNL1       -0.2522
      4 N          58.9079   90.4452    6.1659 N.am    1  UNL1       -0.2681
      5 H          58.5246   92.4175    4.2470 H       1  UNL1        0.1564
      6 H          57.9738   90.7561    6.1669 H       1  UNL1        0.1564
      7 C          62.4199   93.8884    1.3638 C.ar    1  UNL1        0.0179
      8 C          61.1190   94.5863    1.6298 C.ar    1  UNL1        0.0028
      9 C          60.1320   93.9923    2.5905 C.ar    1  UNL1        0.0148
     10 C          60.4458   92.7006    3.2853 C.ar    1  UNL1        0.0516
     11 C          61.7466   92.0027    3.0194 C.ar    1  UNL1        0.0148
     12 C          62.7337   92.5966    2.0586 C.ar    1  UNL1        0.0028
     13 C          61.1062   92.6720   -1.2997 C.3     1  UNL1        0.0328
     14 C          62.2703   93.4343   -1.8598 C.ar    1  UNL1        0.0017
     15 C          62.6401   93.5391   -3.3097 C.ar    1  UNL1        0.0964
     16 N          63.8673   94.3953   -3.4143 N.ar    1  UNL1       -0.2272
     17 C          64.2559   94.8197   -2.0290 C.ar    1  UNL1        0.1428
     18 N          65.3810   95.6702   -1.5184 N.ar    1  UNL1       -0.3215
     19 C          65.5190   95.9267   -0.0470 C.ar    1  UNL1        0.1760
     20 N          64.5320   95.3328    0.9138 N.ar    1  UNL1       -0.2255
     21 C          63.4069   94.4823    0.4031 C.ar    1  UNL1        0.0856
     22 C          63.2689   94.2258   -1.0683 C.ar    1  UNL1        0.0492
     23 H          66.0288   96.0600   -2.1489 H       1  UNL1        0.1689
     24 C          59.3441   89.3776    7.1251 C.ar    1  UNL1        0.0517
     25 C          59.1028   87.9332    6.8002 C.ar    1  UNL1        0.0147
     26 C          59.5390   86.8656    7.7594 C.ar    1  UNL1        0.0014
     27 C          60.2166   87.2424    9.0435 C.ar    1  UNL1        0.0046
     28 C          60.4580   88.6869    9.3683 C.ar    1  UNL1        0.0546
     29 C          60.0218   89.7544    8.4092 C.ar    1  UNL1        0.0192
     30 C          61.1357   89.0637   10.6524 C.2     1  UNL1        0.2458
     31 O          60.3536   89.0951   11.9320 O.2     1  UNL1       -0.2701
     32 N          62.5954   89.4090   10.6568 N.am    1  UNL1       -0.3025
     33 H          63.1087   89.3884    9.8170 H       1  UNL1        0.1497
     34 C          63.2730   89.7858   11.9409 C.3     1  UNL1        0.0720
     35 C          63.6371   91.2168   12.2050 C.3     1  UNL1        0.0213
     36 C          63.5866   88.7316   12.9609 C.3     1  UNL1        0.0213
@<TRIPOS>BOND
     1    13    14    1
     2    14    15   ar
     3    15    16   ar
     4    16    17   ar
     5    17    18   ar
     6    18    19   ar
     7    19    20   ar
     8    20    21   ar
     9    21     7    1
    10     7     8   ar
    11     8     9   ar
    12     9    10   ar
    13    10     1    1
    14     1     2   am
    15     2     3    2
    16     2     4   am
    17     4    24    1
    18    24    25   ar
    19    25    26   ar
    20    26    27   ar
    21    27    28   ar
    22    28    30    1
    23    30    31    2
    24    30    32   am
    25    32    34    1
    26    34    35    1
    27    34    36    1
    28    28    29   ar
    29    10    11   ar
    30    11    12   ar
    31    21    22   ar
    32    22    14   ar
    33    22    17    1
    34    12     7   ar
    35    29    24   ar
    36    18    23    1
    37     1     5    1
    38     4     6    1
    39    32    33    1
@<TRIPOS>MOLECULE
*****
 36 39 0 0 0
SMALL
GASTEIGER

@<TRIPOS>ATOM
      1 N          64.6035   90.4784   15.2652 N.am    1  UNL1       -0.2681
      2 C          64.2186   89.0659   14.9386 C.2     1  UNL1        0.3082
      3 O          64.1721   88.6125   13.5095 O.2     1  UNL1       -0.2522
      4 N          63.8803   88.1068   16.0411 N.am    1  UNL1       -0.2681
      5 H          64.6341   90.7760   16.2032 H       1  UNL1        0.1564
      6 H          63.9108   88.4043   16.9791 H       1  UNL1        0.1564
      7 C          65.6186   93.3559   11.9577 C.ar    1  UNL1        0.0179
      8 C          66.3412   93.4362   13.2697 C.ar    1  UNL1        0.0028
      9 C          66.0029   92.4770   14.3722 C.ar    1  UNL1        0.0148
     10 C          64.9419   91.4376   14.1627 C.ar    1  UNL1        0.0516
     11 C          64.2193   91.3574   12.8507 C.ar    1  UNL1        0.0148
     12 C          64.5576   92.3165   11.7482 C.ar    1  UNL1        0.0028
     13 C          67.8259   91.5085   10.5382 C.3     1  UNL1        0.0328
     14 C          67.8387   92.7227    9.6576 C.ar    1  UNL1        0.0017
     15 C          68.7002   92.9243    8.4463 C.ar    1  UNL1        0.0964
     16 N          68.3861   94.2747    7.8737 N.ar    1  UNL1       -0.2272
     17 C          67.3305   94.9076    8.7310 C.ar    1  UNL1        0.1428
     18 N          66.6337   96.2335    8.6502 N.ar    1  UNL1       -0.3215
     19 C          65.5985   96.6001    9.6719 C.ar    1  UNL1        0.1760
     20 N          65.2601   95.6409   10.7744 N.ar    1  UNL1       -0.2255
     21 C          65.9570   94.3151   10.8552 C.ar    1  UNL1        0.0856
     22 C          66.9921   93.9485    9.8335 C.ar    1  UNL1        0.0492
     23 H          66.8557   96.8630    7.9266 H       1  UNL1        0.1689
     24 C          63.4954   86.6942   15.7145 C.ar    1  UNL1        0.0517
     25 C          62.7474   85.8692   16.7193 C.ar    1  UNL1        0.0147
     26 C          62.3625   84.4566   16.3927 C.ar    1  UNL1        0.0014
     27 C          62.7256   83.8692   15.0612 C.ar    1  UNL1        0.0046
     28 C          63.4737   84.6942   14.0563 C.ar    1  UNL1        0.0546
     29 C          63.8586   86.1067   14.3830 C.ar    1  UNL1        0.0192
     30 C          63.8369   84.1068   12.7248 C.2     1  UNL1        0.2458
     31 O          64.9229   83.0764   12.6307 O.2     1  UNL1       -0.2701
     32 N          63.1140   84.5497   11.4873 N.am    1  UNL1       -0.3025
     33 H          62.4012   85.2260   11.5490 H       1  UNL1        0.1497
     34 C          63.4772   83.9622   10.1557 C.3     1  UNL1        0.0720
     35 C          64.0379   82.5732   10.0766 C.3     1  UNL1        0.0213
     36 C          63.2797   84.7638    8.9033 C.3     1  UNL1        0.0213
@<TRIPOS>BOND
     1    13    14    1
     2    14    15   ar
     3    15    16   ar
     4    16    17   ar
     5    17    18   ar
     6    18    19   ar
     7    19    20   ar
     8    20    21   ar
     9    21     7    1
    10     7     8   ar
    11     8     9   ar
    12     9    10   ar
    13    10     1    1
    14     1     2   am
    15     2     3    2
    16     2     4   am
    17     4    24    1
    18    24    25   ar
    19    25    26   ar
    20    26    27   ar
    21    27    28   ar
    22    28    30    1
    23    30    31    2
    24    30    32   am
    25    32    34    1
    26    34    35    1
    27    34    36    1
    28    28    29   ar
    29    10    11   ar
    30    11    12   ar
    31    21    22   ar
    32    22    14   ar
    33    22    17    1
    34    12     7   ar
    35    29    24   ar
    36    18    23    1
    37     1     5    1
    38     4     6    1
    39    32    33    1
@<TRIPOS>MOLECULE
*****
 36 39 0 0 0
SMALL
GASTEIGER

@<TRIPOS>ATOM
      1 N          59.4295   92.2976    4.2015 N.am    1  UNL1       -0.2681
      2 C          59.8524   91.1687    5.0940 C.2     1  UNL1        0.3082
      3 O          61.1234   90.4240    4.8105 O.2     1  UNL1       -0.2522
      4 N          59.0044   90.7842    6.2701 N.am    1  UNL1       -0.2681
      5 H          58.5954   92.7863    4.3877 H       1  UNL1        0.1564
      6 H          58.1703   91.2729    6.4562 H       1  UNL1        0.1564
      7 C          61.9736   93.4509    0.6734 C.ar    1  UNL1        0.0179
      8 C          62.5498   92.6031    1.7684 C.ar    1  UNL1        0.0028
      9 C          61.7018   92.2187    2.9444 C.ar    1  UNL1        0.0148
     10 C          60.2776   92.6821    3.0255 C.ar    1  UNL1        0.0516
     11 C          59.7013   93.5299    1.9305 C.ar    1  UNL1        0.0148
     12 C          60.5493   93.9143    0.7544 C.ar    1  UNL1        0.0028
     13 C          63.5526   95.8340    2.1319 C.3     1  UNL1        0.0328
     14 C          64.1592   95.8667    0.7604 C.ar    1  UNL1        0.0017
     15 C          65.2255   96.8110    0.2902 C.ar    1  UNL1        0.0964
     16 N          65.5313   96.4887   -1.1425 N.ar    1  UNL1       -0.2272
     17 C          64.6539   95.3451   -1.5577 C.ar    1  UNL1        0.1428
     18 N          64.5176   94.6042   -2.8548 N.ar    1  UNL1       -0.3215
     19 C          63.5333   93.4788   -2.9758 C.ar    1  UNL1        0.1760
     20 N          62.6853   93.0944   -1.7997 N.ar    1  UNL1       -0.2255
     21 C          62.8216   93.8353   -0.5027 C.ar    1  UNL1        0.0856
     22 C          63.8059   94.9607   -0.3817 C.ar    1  UNL1        0.0492
     23 H          65.0742   94.8565   -3.6267 H       1  UNL1        0.1689
     24 C          59.4273   89.6552    7.1626 C.ar    1  UNL1        0.0517
     25 C          58.8885   88.2745    6.9319 C.ar    1  UNL1        0.0147
     26 C          59.3114   87.1455    7.8244 C.ar    1  UNL1        0.0014
     27 C          60.2732   87.3972    8.9475 C.ar    1  UNL1        0.0046
     28 C          60.8121   88.7780    9.1782 C.ar    1  UNL1        0.0546
     29 C          60.3892   89.9069    8.2858 C.ar    1  UNL1        0.0192
     30 C          61.7739   89.0297   10.3014 C.2     1  UNL1        0.2458
     31 O          62.3698   87.8755   11.0514 O.2     1  UNL1       -0.2701
     32 N          62.1398   90.4358   10.6746 N.am    1  UNL1       -0.3025
     33 H          61.7487   91.1934   10.1823 H       1  UNL1        0.1497
     34 C          63.1016   90.6875   11.7978 C.3     1  UNL1        0.0720
     35 C          62.8839   90.0370   13.1316 C.3     1  UNL1        0.0213
     36 C          64.2812   91.5899   11.5870 C.3     1  UNL1        0.0213
@<TRIPOS>BOND
     1    13    14    1
     2    14    15   ar
     3    15    16   ar
     4    16    17   ar
     5    17    18   ar
     6    18    19   ar
     7    19    20   ar
     8    20    21   ar
     9    21     7    1
    10     7     8   ar
    11     8     9   ar
    12     9    10   ar
    13    10     1    1
    14     1     2   am
    15     2     3    2
    16     2     4   am
    17     4    24    1
    18    24    25   ar
    19    25    26   ar
    20    26    27   ar
    21    27    28   ar
    22    28    30    1
    23    30    31    2
    24    30    32   am
    25    32    34    1
    26    34    35    1
    27    34    36    1
    28    28    29   ar
    29    10    11   ar
    30    11    12   ar
    31    21    22   ar
    32    22    14   ar
    33    22    17    1
    34    12     7   ar
    35    29    24   ar
    36    18    23    1
    37     1     5    1
    38     4     6    1
    39    32    33    1
@<TRIPOS>MOLECULE
*****
 36 39 0 0 0
SMALL
GASTEIGER

@<TRIPOS>ATOM
      1 N          63.1932   88.0736   16.1246 N.am    1  UNL1       -0.2681
      2 C          64.1035   89.0850   15.4934 C.2     1  UNL1        0.3082
      3 O          64.9252   88.7102   14.2957 O.2     1  UNL1       -0.2522
      4 N          64.1922   90.4710   16.0599 N.am    1  UNL1       -0.2681
      5 H          62.6539   88.3196   16.9107 H       1  UNL1        0.1564
      6 H          63.6530   90.7170   16.8459 H       1  UNL1        0.1564
      7 C          62.9271   83.9153   14.4252 C.ar    1  UNL1        0.0179
      8 C          64.1523   84.7467   14.1851 C.ar    1  UNL1        0.0028
      9 C          64.2410   86.1328   14.7515 C.ar    1  UNL1        0.0148
     10 C          63.1045   86.6875   15.5581 C.ar    1  UNL1        0.0516
     11 C          61.8794   85.8562   15.7982 C.ar    1  UNL1        0.0148
     12 C          61.7907   84.4701   15.2318 C.ar    1  UNL1        0.0028
     13 C          63.4893   84.7368   11.3741 C.3     1  UNL1        0.0328
     14 C          63.3202   83.2508   11.2590 C.ar    1  UNL1        0.0017
     15 C          63.4098   82.4485    9.9948 C.ar    1  UNL1        0.0964
     16 N          63.1767   81.0081   10.3425 N.ar    1  UNL1       -0.2272
     17 C          62.9431   80.9202   11.8216 C.ar    1  UNL1        0.1428
     18 N          62.6611   79.7571   12.7258 N.ar    1  UNL1       -0.3215
     19 C          62.4678   79.9801   14.1964 C.ar    1  UNL1        0.1760
     20 N          62.5564   81.3661   14.7629 N.ar    1  UNL1       -0.2255
     21 C          62.8385   82.5293   13.8587 C.ar    1  UNL1        0.0856
     22 C          63.0318   82.3063   12.3881 C.ar    1  UNL1        0.0492
     23 H          62.6029   78.8473   12.3540 H       1  UNL1        0.1689
     24 C          65.1026   91.4824   15.4286 C.ar    1  UNL1        0.0517
     25 C          65.9034   92.4123   16.2911 C.ar    1  UNL1        0.0147
     26 C          66.8138   93.4237   15.6598 C.ar    1  UNL1        0.0014
     27 C          66.9233   93.5051   14.1661 C.ar    1  UNL1        0.0046
     28 C          66.1225   92.5751   13.3035 C.ar    1  UNL1        0.0546
     29 C          65.2122   91.5638   13.9348 C.ar    1  UNL1        0.0192
     30 C          66.2320   92.6565   11.8098 C.2     1  UNL1        0.2458
     31 O          65.0982   92.1859   10.9479 O.2     1  UNL1       -0.2701
     32 N          67.4755   93.2084   11.1779 N.am    1  UNL1       -0.3025
     33 H          68.2197   93.5173   11.7436 H       1  UNL1        0.1497
     34 C          67.5850   93.2898    9.6841 C.3     1  UNL1        0.0720
     35 C          68.3772   92.2611    8.9330 C.3     1  UNL1        0.0213
     36 C          66.9024   94.4000    8.9414 C.3     1  UNL1        0.0213
@<TRIPOS>BOND
     1    13    14    1
     2    14    15   ar
     3    15    16   ar
     4    16    17   ar
     5    17    18   ar
     6    18    19   ar
     7    19    20   ar
     8    20    21   ar
     9    21     7    1
    10     7     8   ar
    11     8     9   ar
    12     9    10   ar
    13    10     1    1
    14     1     2   am
    15     2     3    2
    16     2     4   am
    17     4    24    1
    18    24    25   ar
    19    25    26   ar
    20    26    27   ar
    21    27    28   ar
    22    28    30    1
    23    30    31    2
    24    30    32   am
    25    32    34    1
    26    34    35    1
    27    34    36    1
    28    28    29   ar
    29    10    11   ar
    30    11    12   ar
    31    21    22   ar
    32    22    14   ar
    33    22    17    1
    34    12     7   ar
    35    29    24   ar
    36    18    23    1
    37     1     5    1
    38     4     6    1
    39    32    33    1
@<TRIPOS>MOLECULE
*****
 36 39 0 0 0
SMALL
GASTEIGER

@<TRIPOS>ATOM
      1 N          63.8540   88.5476   15.3211 N.am    1  UNL1       -0.2681
      2 C          64.6945   89.6865   14.8248 C.2     1  UNL1        0.3082
      3 O          65.4676   89.5470   13.5469 O.2     1  UNL1       -0.2522
      4 N          64.7620   90.9650   15.6064 N.am    1  UNL1       -0.2681
      5 H          63.3466   88.6392   16.1598 H       1  UNL1        0.1564
      6 H          64.2547   91.0566   16.4451 H       1  UNL1        0.1564
      7 C          63.6513   84.7121   12.9763 C.ar    1  UNL1        0.0179
      8 C          62.9605   85.9413   12.4647 C.ar    1  UNL1        0.0028
      9 C          63.0281   87.2198   13.2463 C.ar    1  UNL1        0.0148
     10 C          63.7864   87.2691   14.5395 C.ar    1  UNL1        0.0516
     11 C          64.4772   86.0399   15.0511 C.ar    1  UNL1        0.0148
     12 C          64.4097   84.7614   14.2695 C.ar    1  UNL1        0.0028
     13 C          62.0512   83.0230   15.1868 C.3     1  UNL1        0.0328
     14 C          62.2172   82.0080   14.0949 C.ar    1  UNL1        0.0017
     15 C          61.7246   80.5915   14.1256 C.ar    1  UNL1        0.0964
     16 N          62.1079   79.9394   12.8303 N.ar    1  UNL1       -0.2272
     17 C          62.8373   80.9528   11.9991 C.ar    1  UNL1        0.1428
     18 N          63.4487   80.8766   10.6315 N.ar    1  UNL1       -0.3215
     19 C          64.1276   82.0789   10.0455 C.ar    1  UNL1        0.1760
     20 N          64.1952   83.3574   10.8271 N.ar    1  UNL1       -0.2255
     21 C          63.5838   83.4336   12.1947 C.ar    1  UNL1        0.0856
     22 C          62.9048   82.2313   12.7807 C.ar    1  UNL1        0.0492
     23 H          63.4044   80.0375   10.1185 H       1  UNL1        0.1689
     24 C          65.6027   92.1040   15.1101 C.ar    1  UNL1        0.0517
     25 C          66.6360   92.7196   16.0062 C.ar    1  UNL1        0.0147
     26 C          67.4766   93.8585   15.5099 C.ar    1  UNL1        0.0014
     27 C          67.2838   94.3818   14.1174 C.ar    1  UNL1        0.0046
     28 C          66.2504   93.7661   13.2212 C.ar    1  UNL1        0.0546
     29 C          65.4098   92.6272   13.7176 C.ar    1  UNL1        0.0192
     30 C          66.0576   94.2893   11.8288 C.2     1  UNL1        0.2458
     31 O          65.7391   93.3431   10.7094 O.2     1  UNL1       -0.2701
     32 N          66.1832   95.7590   11.5557 N.am    1  UNL1       -0.3025
     33 H          66.3922   96.3801   12.2904 H       1  UNL1        0.1497
     34 C          65.9904   96.2822   10.1632 C.3     1  UNL1        0.0720
     35 C          64.6662   96.8558    9.7542 C.3     1  UNL1        0.0213
     36 C          67.1219   96.2318    9.1797 C.3     1  UNL1        0.0213
@<TRIPOS>BOND
     1    13    14    1
     2    14    15   ar
     3    15    16   ar
     4    16    17   ar
     5    17    18   ar
     6    18    19   ar
     7    19    20   ar
     8    20    21   ar
     9    21     7    1
    10     7     8   ar
    11     8     9   ar
    12     9    10   ar
    13    10     1    1
    14     1     2   am
    15     2     3    2
    16     2     4   am
    17     4    24    1
    18    24    25   ar
    19    25    26   ar
    20    26    27   ar
    21    27    28   ar
    22    28    30    1
    23    30    31    2
    24    30    32   am
    25    32    34    1
    26    34    35    1
    27    34    36    1
    28    28    29   ar
    29    10    11   ar
    30    11    12   ar
    31    21    22   ar
    32    22    14   ar
    33    22    17    1
    34    12     7   ar
    35    29    24   ar
    36    18    23    1
    37     1     5    1
    38     4     6    1
    39    32    33    1
@<TRIPOS>MOLECULE
*****
 36 39 0 0 0
SMALL
GASTEIGER

@<TRIPOS>ATOM
      1 N          63.9927   88.6320   13.8089 N.am    1  UNL1       -0.2681
      2 C          64.6989   89.9547   13.7673 C.2     1  UNL1        0.3082
      3 O          64.5655   90.8387   12.5627 O.2     1  UNL1       -0.2522
      4 N          65.5386   90.3935   14.9302 N.am    1  UNL1       -0.2681
      5 H          64.0803   88.0519   14.5994 H       1  UNL1        0.1564
      6 H          65.6262   89.8133   15.7208 H       1  UNL1        0.1564
      7 C          61.4737   87.3157   10.3201 C.ar    1  UNL1        0.0179
      8 C          61.8577   88.7583   10.4659 C.ar    1  UNL1        0.0028
      9 C          62.6974   89.1971   11.6288 C.ar    1  UNL1        0.0148
     10 C          63.1530   88.1932   12.6459 C.ar    1  UNL1        0.0516
     11 C          62.7691   86.7506   12.5001 C.ar    1  UNL1        0.0148
     12 C          61.9294   86.3118   11.3372 C.ar    1  UNL1        0.0028
     13 C          63.6895   85.4284    8.9680 C.3     1  UNL1        0.0328
     14 C          62.5396   85.2701    8.0179 C.ar    1  UNL1        0.0017
     15 C          62.5286   84.4225    6.7805 C.ar    1  UNL1        0.0964
     16 N          61.1810   84.5601    6.1363 N.ar    1  UNL1       -0.2272
     17 C          60.3591   85.4929    6.9757 C.ar    1  UNL1        0.1428
     18 N          58.9546   85.9993    6.8313 N.ar    1  UNL1       -0.3215
     19 C          58.3898   86.9445    7.8499 C.ar    1  UNL1        0.1760
     20 N          59.2295   87.3833    9.0128 N.ar    1  UNL1       -0.2255
     21 C          60.6340   86.8769    9.1572 C.ar    1  UNL1        0.0856
     22 C          61.1988   85.9316    8.1386 C.ar    1  UNL1        0.0492
     23 H          58.4035   85.7113    6.0681 H       1  UNL1        0.1689
     24 C          66.2448   91.7162   14.8886 C.ar    1  UNL1        0.0517
     25 C          67.1657   92.1102   16.0051 C.ar    1  UNL1        0.0147
     26 C          67.8720   93.4330   15.9635 C.ar    1  UNL1        0.0014
     27 C          67.6572   94.3617   14.8053 C.ar    1  UNL1        0.0046
     28 C          66.7363   93.9676   13.6887 C.ar    1  UNL1        0.0546
     29 C          66.0301   92.6449   13.7304 C.ar    1  UNL1        0.0192
     30 C          66.5215   94.8963   12.5305 C.2     1  UNL1        0.2458
     31 O          66.1293   96.3231   12.7760 O.2     1  UNL1       -0.2701
     32 N          66.6991   94.3981   11.1268 N.am    1  UNL1       -0.3025
     33 H          66.9565   93.4616   10.9657 H       1  UNL1        0.1497
     34 C          66.4843   95.3268    9.9686 C.3     1  UNL1        0.0720
     35 C          67.5131   95.4197    8.8810 C.3     1  UNL1        0.0213
     36 C          65.2407   96.1626    9.8981 C.3     1  UNL1        0.0213
@<TRIPOS>BOND
     1    13    14    1
     2    14    15   ar
     3    15    16   ar
     4    16    17   ar
     5    17    18   ar
     6    18    19   ar
     7    19    20   ar
     8    20    21   ar
     9    21     7    1
    10     7     8   ar
    11     8     9   ar
    12     9    10   ar
    13    10     1    1
    14     1     2   am
    15     2     3    2
    16     2     4   am
    17     4    24    1
    18    24    25   ar
    19    25    26   ar
    20    26    27   ar
    21    27    28   ar
    22    28    30    1
    23    30    31    2
    24    30    32   am
    25    32    34    1
    26    34    35    1
    27    34    36    1
    28    28    29   ar
    29    10    11   ar
    30    11    12   ar
    31    21    22   ar
    32    22    14   ar
    33    22    17    1
    34    12     7   ar
    35    29    24   ar
    36    18    23    1
    37     1     5    1
    38     4     6    1
    39    32    33    1
@<TRIPOS>MOLECULE
*****
 36 39 0 0 0
SMALL
GASTEIGER

@<TRIPOS>ATOM
      1 N          62.6206   89.4010   10.4379 N.am    1  UNL1       -0.2681
      2 C          63.5704   90.4292   10.9770 C.2     1  UNL1        0.3082
      3 O          64.4615   90.0927   12.1359 O.2     1  UNL1       -0.2522
      4 N          63.6292   91.7940   10.3574 N.am    1  UNL1       -0.2681
      5 H          62.0358   89.6219    9.6774 H       1  UNL1        0.1564
      6 H          63.0444   92.0149    9.5968 H       1  UNL1        0.1564
      7 C          62.4443   85.3067   12.2969 C.ar    1  UNL1        0.0179
      8 C          63.2901   86.3775   12.9198 C.ar    1  UNL1        0.0028
      9 C          63.3489   87.7422   12.3002 C.ar    1  UNL1        0.0148
     10 C          62.5618   88.0363   11.0576 C.ar    1  UNL1        0.0516
     11 C          61.7160   86.9655   10.4347 C.ar    1  UNL1        0.0148
     12 C          61.6572   85.6008   11.0544 C.ar    1  UNL1        0.0028
     13 C          63.5083   83.7001    9.7306 C.3     1  UNL1        0.0328
     14 C          63.2957   82.5880   10.7145 C.ar    1  UNL1        0.0017
     15 C          63.5462   81.1303   10.4652 C.ar    1  UNL1        0.0964
     16 N          63.2006   80.3799   11.7172 N.ar    1  UNL1       -0.2272
     17 C          62.7365   81.3738   12.7402 C.ar    1  UNL1        0.1428
     18 N          62.2679   81.2125   14.1560 N.ar    1  UNL1       -0.3215
     19 C          61.8581   82.4159   14.9520 C.ar    1  UNL1        0.1760
     20 N          61.9169   83.7807   14.3324 N.ar    1  UNL1       -0.2255
     21 C          62.3855   83.9420   12.9166 C.ar    1  UNL1        0.0856
     22 C          62.7952   82.7386   12.1205 C.ar    1  UNL1        0.0492
     23 H          62.2293   80.3168   14.5627 H       1  UNL1        0.1689
     24 C          64.5791   92.8222   10.8965 C.ar    1  UNL1        0.0517
     25 C          64.9446   94.0152   10.0641 C.ar    1  UNL1        0.0147
     26 C          65.8945   95.0434   10.6032 C.ar    1  UNL1        0.0014
     27 C          66.4787   94.8785   11.9749 C.ar    1  UNL1        0.0046
     28 C          66.1131   93.6854   12.8074 C.ar    1  UNL1        0.0546
     29 C          65.1633   92.6573   12.2682 C.ar    1  UNL1        0.0192
     30 C          66.6974   93.5206   14.1790 C.2     1  UNL1        0.2458
     31 O          65.7932   93.3834   15.3679 O.2     1  UNL1       -0.2701
     32 N          68.1860   93.4928   14.3618 N.am    1  UNL1       -0.3025
     33 H          68.7795   93.5829   13.5815 H       1  UNL1        0.1497
     34 C          68.7703   93.3280   15.7334 C.3     1  UNL1        0.0720
     35 C          68.7175   91.9931   16.4156 C.3     1  UNL1        0.0213
     36 C          69.4074   94.4980   16.4229 C.3     1  UNL1        0.0213
@<TRIPOS>BOND
     1    13    14    1
     2    14    15   ar
     3    15    16   ar
     4    16    17   ar
     5    17    18   ar
     6    18    19   ar
     7    19    20   ar
     8    20    21   ar
     9    21     7    1
    10     7     8   ar
    11     8     9   ar
    12     9    10   ar
    13    10     1    1
    14     1     2   am
    15     2     3    2
    16     2     4   am
    17     4    24    1
    18    24    25   ar
    19    25    26   ar
    20    26    27   ar
    21    27    28   ar
    22    28    30    1
    23    30    31    2
    24    30    32   am
    25    32    34    1
    26    34    35    1
    27    34    36    1
    28    28    29   ar
    29    10    11   ar
    30    11    12   ar
    31    21    22   ar
    32    22    14   ar
    33    22    17    1
    34    12     7   ar
    35    29    24   ar
    36    18    23    1
    37     1     5    1
    38     4     6    1
    39    32    33    1
@<TRIPOS>MOLECULE
*****
 36 39 0 0 0
SMALL
GASTEIGER

@<TRIPOS>ATOM
      1 N          59.0007   89.8486    7.1483 N.am    1  UNL1       -0.2681
      2 C          59.7164   90.4107    5.9559 C.2     1  UNL1        0.3082
      3 O          61.1368   90.0159    5.6788 O.2     1  UNL1       -0.2522
      4 N          59.0118   91.3677    5.0407 N.am    1  UNL1       -0.2681
      5 H          58.0685   90.1077    7.3302 H       1  UNL1        0.1564
      6 H          58.0796   91.6269    5.2226 H       1  UNL1        0.1564
      7 C          61.1146   86.9775    9.8940 C.ar    1  UNL1        0.0179
      8 C          60.0842   86.4712    8.9287 C.ar    1  UNL1        0.0028
      9 C          59.3796   87.4283    8.0134 C.ar    1  UNL1        0.0148
     10 C          59.7053   88.8916    8.0635 C.ar    1  UNL1        0.0516
     11 C          60.7357   89.3979    9.0288 C.ar    1  UNL1        0.0148
     12 C          61.4404   88.4408    9.9441 C.ar    1  UNL1        0.0028
     13 C          62.6649   85.3584    7.5973 C.3     1  UNL1        0.0328
     14 C          63.1343   84.6502    8.8334 C.ar    1  UNL1        0.0017
     15 C          64.0862   83.4918    8.8782 C.ar    1  UNL1        0.0964
     16 N          64.2744   83.1018   10.3143 N.ar    1  UNL1       -0.2272
     17 C          63.4387   84.0191   11.1571 C.ar    1  UNL1        0.1428
     18 N          63.2284   84.1065   12.6397 N.ar    1  UNL1       -0.3215
     19 C          62.3135   85.1510   13.2070 C.ar    1  UNL1        0.1760
     20 N          61.6089   86.1080   12.2918 N.ar    1  UNL1       -0.2255
     21 C          61.8192   86.0205   10.8092 C.ar    1  UNL1        0.0856
     22 C          62.7341   84.9761   10.2419 C.ar    1  UNL1        0.0492
     23 H          63.6909   83.4784   13.2404 H       1  UNL1        0.1689
     24 C          59.7275   91.9299    3.8483 C.ar    1  UNL1        0.0517
     25 C          61.2196   92.0814    3.8719 C.ar    1  UNL1        0.0147
     26 C          61.9354   92.6436    2.6795 C.ar    1  UNL1        0.0014
     27 C          61.1589   93.0542    1.4635 C.ar    1  UNL1        0.0046
     28 C          59.6667   92.9027    1.4400 C.ar    1  UNL1        0.0546
     29 C          58.9511   92.3405    2.6324 C.ar    1  UNL1        0.0192
     30 C          58.8903   93.3133    0.2241 C.2     1  UNL1        0.2458
     31 O          58.7691   94.7650   -0.1335 O.2     1  UNL1       -0.2701
     32 N          58.2350   92.2722   -0.6343 N.am    1  UNL1       -0.3025
     33 H          58.3146   91.3194   -0.3997 H       1  UNL1        0.1497
     34 C          57.4586   92.6828   -1.8503 C.3     1  UNL1        0.0720
     35 C          58.0927   92.6032   -3.2073 C.3     1  UNL1        0.0213
     36 C          56.0479   93.1730   -1.7091 C.3     1  UNL1        0.0213
@<TRIPOS>BOND
     1    13    14    1
     2    14    15   ar
     3    15    16   ar
     4    16    17   ar
     5    17    18   ar
     6    18    19   ar
     7    19    20   ar
     8    20    21   ar
     9    21     7    1
    10     7     8   ar
    11     8     9   ar
    12     9    10   ar
    13    10     1    1
    14     1     2   am
    15     2     3    2
    16     2     4   am
    17     4    24    1
    18    24    25   ar
    19    25    26   ar
    20    26    27   ar
    21    27    28   ar
    22    28    30    1
    23    30    31    2
    24    30    32   am
    25    32    34    1
    26    34    35    1
    27    34    36    1
    28    28    29   ar
    29    10    11   ar
    30    11    12   ar
    31    21    22   ar
    32    22    14   ar
    33    22    17    1
    34    12     7   ar
    35    29    24   ar
    36    18    23    1
    37     1     5    1
    38     4     6    1
    39    32    33    1
