@<TRIPOS>MOLECULE
*****
 26 29 0 0 0
SMALL
GASTEIGER

@<TRIPOS>ATOM
      1 C1         62.5548   89.8018   11.1186 C.3     1  <1>         0.0343
      2 C2         62.8867   88.5535   11.8813 C.ar    1  <1>         0.0152
      3 C3         63.5860   88.4899   13.2068 C.ar    1  <1>         0.0988
      4 N1         63.7091   87.0468   13.5971 N.ar    1  <1>        -0.1637
      5 N2         63.0859   86.2186   12.5128 N.ar    1  <1>        -0.2070
      6 C4         62.5776   87.1498   11.4524 C.ar    1  <1>         0.0824
      7 C5         64.0761   89.6634   14.0024 C.ar    1  <1>         0.0191
      8 C6         65.1083   90.5842   13.4224 C.ar    1  <1>         0.0015
      9 C7         65.5984   91.7576   14.2179 C.ar    1  <1>         0.0000
     10 C8         65.0562   92.0102   15.5935 C.ar    1  <1>         0.0000
     11 C9         64.0239   91.0893   16.1735 C.ar    1  <1>         0.0000
     12 C10        63.5339   89.9159   15.3780 C.ar    1  <1>         0.0015
     13 C11        61.8824   86.7479   10.1855 C.ar    1  <1>         0.0175
     14 C12        60.4336   87.0818    9.9866 C.ar    1  <1>         0.0015
     15 C13        59.7384   86.6798    8.7197 C.ar    1  <1>         0.0000
     16 C14        60.4919   85.9440    7.6517 C.ar    1  <1>         0.0000
     17 C15        61.9407   85.6101    7.8506 C.ar    1  <1>         0.0000
     18 C16        62.6360   86.0120    9.1175 C.ar    1  <1>         0.0015
     19 C17        62.9882   84.7219   12.4925 C.ar    1  <1>         0.1954
     20 N3         62.4762   83.8566   13.6057 N.ar    1  <1>        -0.2192
     21 C18        62.5569   82.4277   13.1566 C.ar    1  <1>         0.1039
     22 C19        63.1187   82.4098   11.7659 C.ar    1  <1>         0.0587
     23 S1         63.3852   83.8277   11.3555 S.2     1  <1>        -0.0466
     24 C20        62.1476   81.2273   13.9576 C.2     1  <1>         0.0911
     25 O1         60.7111   81.0392   14.3462 O.co2   1  <1>        -0.5430
     26 O2         63.1749   80.2150   14.3701 O.co2   1  <1>        -0.5430
@<TRIPOS>UNITY_ATOM_ATTR
25 1
charge -1
@<TRIPOS>BOND
     1     1     2    1
     2     2     3   ar
     3     3     7    1
     4     7     8   ar
     5     8     9   ar
     6     9    10   ar
     7    10    11   ar
     8    11    12   ar
     9     3     4   ar
    10     4     5   ar
    11     5    19    1
    12    19    20   ar
    13    20    21   ar
    14    21    24    1
    15    24    25   ar
    16    24    26   ar
    17    21    22   ar
    18    22    23   ar
    19     5     6   ar
    20     6    13    1
    21    13    14   ar
    22    14    15   ar
    23    15    16   ar
    24    16    17   ar
    25    17    18   ar
    26     6     2   ar
    27    18    13   ar
    28    12     7   ar
    29    23    19   ar
@<TRIPOS>MOLECULE
*****
 26 29 0 0 0
SMALL
GASTEIGER

@<TRIPOS>ATOM
      1 C1         64.2183   89.4133   14.1707 C.3     1  <1>         0.0343
      2 C2         64.2496   90.4145   13.0542 C.ar    1  <1>         0.0152
      3 C3         63.3480   90.4267   11.8554 C.ar    1  <1>         0.0988
      4 N1         63.7291   91.5990   11.0008 N.ar    1  <1>        -0.1637
      5 N2         64.8662   92.3113   11.6713 N.ar    1  <1>        -0.2070
      6 C4         65.1879   91.5792   12.9404 C.ar    1  <1>         0.0824
      7 C5         62.2568   89.4399   11.5627 C.ar    1  <1>         0.0191
      8 C6         60.8232   89.8807   11.5776 C.ar    1  <1>         0.0015
      9 C7         59.7321   88.8938   11.2849 C.ar    1  <1>         0.0000
     10 C8         60.0747   87.4662   10.9774 C.ar    1  <1>         0.0000
     11 C9         61.5084   87.0255   10.9625 C.ar    1  <1>         0.0000
     12 C10        62.5994   88.0123   11.2552 C.ar    1  <1>         0.0015
     13 C11        66.2597   91.9472   13.9232 C.ar    1  <1>         0.0175
     14 C12        67.7036   91.8568   13.5270 C.ar    1  <1>         0.0015
     15 C13        68.7754   92.2248   14.5097 C.ar    1  <1>         0.0000
     16 C14        68.4033   92.6832   15.8886 C.ar    1  <1>         0.0000
     17 C15        66.9594   92.7735   16.2848 C.ar    1  <1>         0.0000
     18 C16        65.8876   92.4055   15.3021 C.ar    1  <1>         0.0015
     19 C17        65.5599   93.5400   11.1622 C.ar    1  <1>         0.1954
     20 N3         65.7708   93.9003    9.7215 N.ar    1  <1>        -0.2192
     21 C18        66.5057   95.2070    9.6733 C.ar    1  <1>         0.1039
     22 C19        66.7489   95.6544   11.0842 C.ar    1  <1>         0.0587
     23 S1         66.1644   94.6241   12.0044 S.2     1  <1>        -0.0466
     24 C20        66.9239   95.9381    8.4320 C.2     1  <1>         0.0911
     25 O1         66.1460   95.7645    7.1613 O.co2   1  <1>        -0.5430
     26 O2         68.1201   96.8428    8.4615 O.co2   1  <1>        -0.5430
@<TRIPOS>UNITY_ATOM_ATTR
25 1
charge -1
@<TRIPOS>BOND
     1     1     2    1
     2     2     3   ar
     3     3     7    1
     4     7     8   ar
     5     8     9   ar
     6     9    10   ar
     7    10    11   ar
     8    11    12   ar
     9     3     4   ar
    10     4     5   ar
    11     5    19    1
    12    19    20   ar
    13    20    21   ar
    14    21    24    1
    15    24    25   ar
    16    24    26   ar
    17    21    22   ar
    18    22    23   ar
    19     5     6   ar
    20     6    13    1
    21    13    14   ar
    22    14    15   ar
    23    15    16   ar
    24    16    17   ar
    25    17    18   ar
    26     6     2   ar
    27    18    13   ar
    28    12     7   ar
    29    23    19   ar
@<TRIPOS>MOLECULE
*****
 26 29 0 0 0
SMALL
GASTEIGER

@<TRIPOS>ATOM
      1 C1         62.4627   85.7530   10.8599 C.3     1  <1>         0.0343
      2 C2         62.9649   86.3062   12.1605 C.ar    1  <1>         0.0152
      3 C3         63.3889   85.5039   13.3549 C.ar    1  <1>         0.0988
      4 N1         63.8173   86.4607   14.4277 N.ar    1  <1>        -0.1637
      5 N2         63.6580   87.8544   13.8964 N.ar    1  <1>        -0.2070
      6 C4         63.1312   87.7589   12.4952 C.ar    1  <1>         0.0824
      7 C5         63.3851   84.0074   13.4583 C.ar    1  <1>         0.0191
      8 C6         64.3984   83.2008   12.7016 C.ar    1  <1>         0.0015
      9 C7         64.3946   81.7044   12.8050 C.ar    1  <1>         0.0000
     10 C8         63.3776   81.0146   13.6651 C.ar    1  <1>         0.0000
     11 C9         62.3643   81.8212   14.4218 C.ar    1  <1>         0.0000
     12 C10        62.3681   83.3176   14.3184 C.ar    1  <1>         0.0015
     13 C11        62.8246   88.9134   11.5879 C.ar    1  <1>         0.0175
     14 C12        63.6963   90.1340   11.6066 C.ar    1  <1>         0.0015
     15 C13        63.3896   91.2885   10.6993 C.ar    1  <1>         0.0000
     16 C14        62.2114   91.2224    9.7734 C.ar    1  <1>         0.0000
     17 C15        61.3397   90.0017    9.7548 C.ar    1  <1>         0.0000
     18 C16        61.6463   88.8472   10.6620 C.ar    1  <1>         0.0015
     19 C17        63.9707   89.1212   14.6364 C.ar    1  <1>         0.1954
     20 N3         65.0444   90.1070   14.2823 N.ar    1  <1>        -0.2192
     21 C18        65.0019   91.2196   15.2874 C.ar    1  <1>         0.1039
     22 C19        63.9019   90.9214   16.2627 C.ar    1  <1>         0.0587
     23 S1         63.2647   89.6245   15.8603 S.2     1  <1>        -0.0466
     24 C20        65.9013   92.4197   15.3127 C.2     1  <1>         0.0911
     25 O1         66.0489   93.2724   14.0875 O.co2   1  <1>        -0.5430
     26 O2         66.6534   92.7671   16.5633 O.co2   1  <1>        -0.5430
@<TRIPOS>UNITY_ATOM_ATTR
25 1
charge -1
@<TRIPOS>BOND
     1     1     2    1
     2     2     3   ar
     3     3     7    1
     4     7     8   ar
     5     8     9   ar
     6     9    10   ar
     7    10    11   ar
     8    11    12   ar
     9     3     4   ar
    10     4     5   ar
    11     5    19    1
    12    19    20   ar
    13    20    21   ar
    14    21    24    1
    15    24    25   ar
    16    24    26   ar
    17    21    22   ar
    18    22    23   ar
    19     5     6   ar
    20     6    13    1
    21    13    14   ar
    22    14    15   ar
    23    15    16   ar
    24    16    17   ar
    25    17    18   ar
    26     6     2   ar
    27    18    13   ar
    28    12     7   ar
    29    23    19   ar
@<TRIPOS>MOLECULE
*****
 26 29 0 0 0
SMALL
GASTEIGER

@<TRIPOS>ATOM
      1 C1         63.0650   91.1657   11.8430 C.3     1  <1>         0.0343
      2 C2         63.3389   89.8299   12.4680 C.ar    1  <1>         0.0152
      3 C3         64.1553   89.5848   13.7023 C.ar    1  <1>         0.0988
      4 N1         64.1654   88.1081   13.9656 N.ar    1  <1>        -0.1637
      5 N2         63.3553   87.4406   12.8940 N.ar    1  <1>        -0.2070
      6 C4         62.8444   88.5048   11.9684 C.ar    1  <1>         0.0824
      7 C5         64.8411   90.6324   14.5282 C.ar    1  <1>         0.0191
      8 C6         66.1890   91.1471   14.1182 C.ar    1  <1>         0.0015
      9 C7         66.8748   92.1947   14.9442 C.ar    1  <1>         0.0000
     10 C8         66.2126   92.7276   16.1801 C.ar    1  <1>         0.0000
     11 C9         64.8647   92.2129   16.5901 C.ar    1  <1>         0.0000
     12 C10        64.1790   91.1653   15.7642 C.ar    1  <1>         0.0015
     13 C11        61.9894   88.2828   10.7562 C.ar    1  <1>         0.0175
     14 C12        62.4412   87.3378    9.6825 C.ar    1  <1>         0.0015
     15 C13        61.5861   87.1158    8.4703 C.ar    1  <1>         0.0000
     16 C14        60.2792   87.8388    8.3318 C.ar    1  <1>         0.0000
     17 C15        59.8273   88.7838    9.4055 C.ar    1  <1>         0.0000
     18 C16        60.6824   89.0058   10.6177 C.ar    1  <1>         0.0015
     19 C17        63.1007   85.9676   12.7698 C.ar    1  <1>         0.1954
     20 N3         63.2081   84.9581   13.8741 N.ar    1  <1>        -0.2192
     21 C18        62.8678   83.6121   13.3063 C.ar    1  <1>         0.1039
     22 C19        62.5500   83.7897   11.8511 C.ar    1  <1>         0.0587
     23 S1         62.6940   85.2455   11.5196 S.2     1  <1>        -0.0466
     24 C20        62.8486   82.3160   14.0612 C.2     1  <1>         0.0911
     25 O1         63.6541   82.1680   15.3178 O.co2   1  <1>        -0.5430
     26 O2         62.0238   81.1680   13.5594 O.co2   1  <1>        -0.5430
@<TRIPOS>UNITY_ATOM_ATTR
25 1
charge -1
@<TRIPOS>BOND
     1     1     2    1
     2     2     3   ar
     3     3     7    1
     4     7     8   ar
     5     8     9   ar
     6     9    10   ar
     7    10    11   ar
     8    11    12   ar
     9     3     4   ar
    10     4     5   ar
    11     5    19    1
    12    19    20   ar
    13    20    21   ar
    14    21    24    1
    15    24    25   ar
    16    24    26   ar
    17    21    22   ar
    18    22    23   ar
    19     5     6   ar
    20     6    13    1
    21    13    14   ar
    22    14    15   ar
    23    15    16   ar
    24    16    17   ar
    25    17    18   ar
    26     6     2   ar
    27    18    13   ar
    28    12     7   ar
    29    23    19   ar
@<TRIPOS>MOLECULE
*****
 26 29 0 0 0
SMALL
GASTEIGER

@<TRIPOS>ATOM
      1 C1         64.0316   91.8132   12.4252 C.3     1  <1>         0.0343
      2 C2         64.3092   90.5515   13.1876 C.ar    1  <1>         0.0152
      3 C3         65.3688   90.3683   14.2333 C.ar    1  <1>         0.0988
      4 N1         65.2904   88.9551   14.7301 N.ar    1  <1>        -0.1637
      5 N2         64.1822   88.2649   13.9913 N.ar    1  <1>        -0.2070
      6 C4         63.5758   89.2516   13.0380 C.ar    1  <1>         0.0824
      7 C5         66.3370   91.4146   14.7004 C.ar    1  <1>         0.0191
      8 C6         67.7250   91.4584   14.1336 C.ar    1  <1>         0.0015
      9 C7         68.6931   92.5047   14.6006 C.ar    1  <1>         0.0000
     10 C8         68.2731   93.5071   15.6344 C.ar    1  <1>         0.0000
     11 C9         66.8850   93.4632   16.2012 C.ar    1  <1>         0.0000
     12 C10        65.9170   92.4170   15.7342 C.ar    1  <1>         0.0015
     13 C11        62.4362   88.9851   12.0998 C.ar    1  <1>         0.0175
     14 C12        62.5682   87.9327   11.0392 C.ar    1  <1>         0.0015
     15 C13        61.4286   87.6662   10.1010 C.ar    1  <1>         0.0000
     16 C14        60.1569   88.4522   10.2235 C.ar    1  <1>         0.0000
     17 C15        60.0248   89.5046   11.2841 C.ar    1  <1>         0.0000
     18 C16        61.1645   89.7711   12.2223 C.ar    1  <1>         0.0015
     19 C17        63.7554   86.8386   14.1739 C.ar    1  <1>         0.1954
     20 N3         63.4662   85.8575   13.0767 N.ar    1  <1>        -0.2192
     21 C18        63.0750   84.5555   13.7103 C.ar    1  <1>         0.1039
     22 C19        63.1223   84.7318   15.1992 C.ar    1  <1>         0.0587
     23 S1         63.5429   86.1428   15.4856 S.2     1  <1>        -0.0466
     24 C20        62.7018   83.2979   12.9829 C.2     1  <1>         0.0911
     25 O1         62.1370   82.1328   13.7402 O.co2   1  <1>        -0.5430
     26 O2         62.8935   83.2054   11.4980 O.co2   1  <1>        -0.5430
@<TRIPOS>UNITY_ATOM_ATTR
25 1
charge -1
@<TRIPOS>BOND
     1     1     2    1
     2     2     3   ar
     3     3     7    1
     4     7     8   ar
     5     8     9   ar
     6     9    10   ar
     7    10    11   ar
     8    11    12   ar
     9     3     4   ar
    10     4     5   ar
    11     5    19    1
    12    19    20   ar
    13    20    21   ar
    14    21    24    1
    15    24    25   ar
    16    24    26   ar
    17    21    22   ar
    18    22    23   ar
    19     5     6   ar
    20     6    13    1
    21    13    14   ar
    22    14    15   ar
    23    15    16   ar
    24    16    17   ar
    25    17    18   ar
    26     6     2   ar
    27    18    13   ar
    28    12     7   ar
    29    23    19   ar
