@<TRIPOS>MOLECULE
*****
 51 57 0 0 0
SMALL
GASTEIGER

@<TRIPOS>ATOM
      1 C          58.6575   86.8049    8.7235 C.3     1  UNL1        0.0312
      2 C          59.5435   87.9779    8.4253 C.2     1  UNL1        0.0136
      3 C          59.3420   88.7694    7.1672 C.2     1  UNL1        0.0107
      4 C          60.2280   89.9423    6.8690 C.2     1  UNL1        0.0509
      5 C          61.3157   90.3240    7.8290 C.2     1  UNL1        0.0613
      6 C          61.5172   89.5325    9.0871 C.2     1  UNL1        0.2246
      7 N          62.4989   89.6699   10.2129 N.2     1  UNL1       -0.0378
      8 C          62.2195   88.5818   11.2068 C.2     1  UNL1        0.3605
      9 N          61.0652   87.7719   10.6954 N.2     1  UNL1       -0.0547
     10 C          60.6311   88.3595    9.3853 C.3     1  UNL1        0.2976
     11 C          62.9638   88.3452   12.4875 C.3     1  UNL1        0.2246
     12 C          63.5124   89.5068   13.2618 C.2     1  UNL1        0.0436
     13 C          64.2567   89.2700   14.5425 C.2     1  UNL1        0.0288
     14 C          64.4524   87.8717   15.0488 C.2     1  UNL1        0.0896
     15 N          63.9037   86.7101   14.2745 N.am    1  UNL1       -0.1770
     16 C          63.1595   86.9468   12.9938 C.2     1  UNL1        0.2627
     17 O          62.6108   85.7852   12.2195 O.2     1  UNL1       -0.2719
     18 N          63.3168   90.9051   12.7555 N.pl3   1  UNL1       -0.3329
     19 H          62.5437   91.4344   13.0578 H       1  UNL1        0.1466
     20 C          64.2992   91.4971   11.7888 C.3     1  UNL1        0.1211
     21 C          65.3105   92.4972   12.2653 C.3     1  UNL1        0.1522
     22 O          65.4442   92.7889   13.7306 O.3     1  UNL1       -0.3783
     23 H          64.8081   92.2503   14.2268 H       1  UNL1        0.2109
     24 C          66.1881   93.2057   11.2764 C.ar    1  UNL1        0.0067
     25 C          66.1281   94.6996   11.1556 C.ar    1  UNL1       -0.0018
     26 C          67.0057   95.4080   10.1668 C.ar    1  UNL1        0.0006
     27 C          67.9434   94.6225    9.2986 C.ar    1  UNL1        0.0114
     28 C          68.0035   93.1287    9.4194 C.ar    1  UNL1        0.0574
     29 CL         68.9413   92.3432    8.5513 Cl      1  UNL1       -0.0823
     30 C          67.1259   92.4202   10.4083 C.ar    1  UNL1        0.0095
     31 N          60.0264   90.7338    5.6108 N.pl3   1  UNL1       -0.3073
     32 C          58.6490   91.1783    5.2169 C.3     1  UNL1        0.0922
     33 C          58.4474   91.9698    3.9587 C.3     1  UNL1        0.0374
     34 C          59.6233   92.3168    3.0945 C.3     1  UNL1        0.0610
     35 C          61.0007   91.8723    3.4884 C.3     1  UNL1        0.0374
     36 C          61.2023   91.0808    4.7465 C.3     1  UNL1        0.0922
     37 N          59.4218   93.1082    1.8363 N.3     1  UNL1       -0.2710
     38 C          58.6302   92.5263    0.7029 C.3     1  UNL1        0.0939
     39 C          58.4287   93.3177   -0.5553 C.3     1  UNL1        0.1123
     40 N          59.0188   94.6911   -0.6801 N.am    1  UNL1       -0.2612
     41 C          58.8173   95.4825   -1.9383 C.2     1  UNL1        0.3073
     42 O          59.4075   96.8559   -2.0631 O.2     1  UNL1       -0.2523
     43 N          58.0257   94.9005   -3.0717 N.am    1  UNL1       -0.2612
     44 C          57.4355   93.5272   -2.9469 C.3     1  UNL1        0.1123
     45 C          56.6439   92.9452   -4.0803 C.3     1  UNL1        0.0940
     46 N          56.4423   93.7366   -5.3385 N.3     1  UNL1       -0.2686
     47 C          55.6507   93.1546   -6.4719 C.3     1  UNL1        0.0897
     48 C          57.0325   95.1100   -5.4633 C.3     1  UNL1        0.0940
     49 C          57.8241   95.6919   -4.3299 C.3     1  UNL1        0.1123
     50 C          59.8105   95.2730    0.4534 C.3     1  UNL1        0.1123
     51 C          60.0120   94.4816    1.7116 C.3     1  UNL1        0.0939
@<TRIPOS>BOND
     1     1     2    1
     2     2     3    2
     3     3     4    1
     4     4    31    1
     5    31    32    1
     6    32    33    1
     7    33    34    1
     8    34    37    1
     9    37    38    1
    10    38    39    1
    11    39    40    1
    12    40    41   am
    13    41    42    2
    14    41    43   am
    15    43    44    1
    16    44    45    1
    17    45    46    1
    18    46    47    1
    19    46    48    1
    20    48    49    1
    21    40    50    1
    22    50    51    1
    23    34    35    1
    24    35    36    1
    25     4     5    2
    26     5     6    1
    27     6     7    2
    28     7     8    1
    29     8    11    1
    30    11    12    1
    31    12    18    1
    32    18    20    1
    33    20    21    1
    34    21    22    1
    35    21    24    1
    36    24    25   ar
    37    25    26   ar
    38    26    27   ar
    39    27    28   ar
    40    28    29    1
    41    28    30   ar
    42    12    13    2
    43    13    14    1
    44    14    15    2
    45    15    16    1
    46    16    17    2
    47     8     9    2
    48     9    10    1
    49    10     2    1
    50    36    31    1
    51    10     6    1
    52    51    37    1
    53    16    11    1
    54    49    43    1
    55    30    24   ar
    56    18    19    1
    57    22    23    1
@<TRIPOS>MOLECULE
*****
 51 57 0 0 0
SMALL
GASTEIGER

@<TRIPOS>ATOM
      1 C          59.0061   86.9164    8.7760 C.3     1  UNL1        0.0312
      2 C          59.7955   88.1559    8.4752 C.2     1  UNL1        0.0136
      3 C          59.5531   88.9085    7.2005 C.2     1  UNL1        0.0107
      4 C          60.3424   90.1480    6.8997 C.2     1  UNL1        0.0509
      5 C          61.3742   90.6350    7.8736 C.2     1  UNL1        0.0613
      6 C          61.6166   89.8823    9.1483 C.2     1  UNL1        0.2246
      7 N          62.5602   90.1195   10.2899 N.2     1  UNL1       -0.0378
      8 C          62.3539   89.0265   11.2963 C.2     1  UNL1        0.3605
      9 N          61.2829   88.1139   10.7767 N.2     1  UNL1       -0.0547
     10 C          60.8272   88.6428    9.4491 C.3     1  UNL1        0.2976
     11 C          63.0895   88.8731   12.5946 C.3     1  UNL1        0.2246
     12 C          63.4286   87.5048   13.1073 C.2     1  UNL1        0.0436
     13 C          64.1642   87.3515   14.4056 C.2     1  UNL1        0.0288
     14 C          64.5608   88.5663   15.1910 C.2     1  UNL1        0.0896
     15 N          64.2217   89.9345   14.6782 N.am    1  UNL1       -0.1770
     16 C          63.4861   90.0879   13.3800 C.2     1  UNL1        0.2627
     17 O          63.1471   91.4561   12.8672 O.2     1  UNL1       -0.2719
     18 N          63.0320   86.2900   12.3220 N.pl3   1  UNL1       -0.3329
     19 H          62.4302   86.3790   11.5480 H       1  UNL1        0.1466
     20 C          63.5525   84.9394   12.7158 C.3     1  UNL1        0.1211
     21 C          62.7117   84.0289   13.5608 C.3     1  UNL1        0.1522
     22 O          61.9890   84.5716   14.7579 O.3     1  UNL1       -0.3783
     23 H          62.1707   85.5207   14.8425 H       1  UNL1        0.2109
     24 C          62.5936   82.5756   13.2086 C.ar    1  UNL1        0.0067
     25 C          62.2100   81.5777   14.2606 C.ar    1  UNL1       -0.0018
     26 C          62.0919   80.1244   13.9085 C.ar    1  UNL1        0.0006
     27 C          62.3574   79.6690   12.5041 C.ar    1  UNL1        0.0114
     28 C          62.7410   80.6670   11.4520 C.ar    1  UNL1        0.0574
     29 CL         63.0065   80.2116   10.0477 Cl      1  UNL1       -0.0823
     30 C          62.8591   82.1202   11.8042 C.ar    1  UNL1        0.0095
     31 N          60.1000   90.9007    5.6250 N.pl3   1  UNL1       -0.3073
     32 C          58.7072   91.3131    5.2508 C.3     1  UNL1        0.0922
     33 C          58.4648   92.0657    3.9761 C.3     1  UNL1        0.0374
     34 C          59.6152   92.4059    3.0756 C.3     1  UNL1        0.0610
     35 C          61.0080   91.9934    3.4498 C.3     1  UNL1        0.0374
     36 C          61.2504   91.2408    4.7245 C.3     1  UNL1        0.0922
     37 N          59.3730   93.1585    1.8010 N.3     1  UNL1       -0.2710
     38 C          58.6256   92.5066    0.6755 C.3     1  UNL1        0.0939
     39 C          58.3833   93.2591   -0.5992 C.3     1  UNL1        0.1123
     40 N          58.8883   94.6636   -0.7485 N.am    1  UNL1       -0.2612
     41 C          58.6460   95.4162   -2.0232 C.2     1  UNL1        0.3073
     42 O          59.1509   96.8207   -2.1726 O.2     1  UNL1       -0.2523
     43 N          57.8986   94.7643   -3.1486 N.am    1  UNL1       -0.2612
     44 C          57.3937   93.3597   -2.9992 C.3     1  UNL1        0.1123
     45 C          56.6463   92.7078   -4.1246 C.3     1  UNL1        0.0940
     46 N          56.4040   93.4604   -5.3994 N.3     1  UNL1       -0.2686
     47 C          55.6567   92.8084   -6.5248 C.3     1  UNL1        0.0897
     48 C          56.9090   94.8649   -5.5487 C.3     1  UNL1        0.0940
     49 C          57.6563   95.5168   -4.4233 C.3     1  UNL1        0.1123
     50 C          59.6356   95.3155    0.3769 C.3     1  UNL1        0.1123
     51 C          59.8779   94.5630    1.6516 C.3     1  UNL1        0.0939
@<TRIPOS>BOND
     1     1     2    1
     2     2     3    2
     3     3     4    1
     4     4    31    1
     5    31    32    1
     6    32    33    1
     7    33    34    1
     8    34    37    1
     9    37    38    1
    10    38    39    1
    11    39    40    1
    12    40    41   am
    13    41    42    2
    14    41    43   am
    15    43    44    1
    16    44    45    1
    17    45    46    1
    18    46    47    1
    19    46    48    1
    20    48    49    1
    21    40    50    1
    22    50    51    1
    23    34    35    1
    24    35    36    1
    25     4     5    2
    26     5     6    1
    27     6     7    2
    28     7     8    1
    29     8    11    1
    30    11    12    1
    31    12    18    1
    32    18    20    1
    33    20    21    1
    34    21    22    1
    35    21    24    1
    36    24    25   ar
    37    25    26   ar
    38    26    27   ar
    39    27    28   ar
    40    28    29    1
    41    28    30   ar
    42    12    13    2
    43    13    14    1
    44    14    15    2
    45    15    16    1
    46    16    17    2
    47     8     9    2
    48     9    10    1
    49    10     2    1
    50    36    31    1
    51    10     6    1
    52    51    37    1
    53    16    11    1
    54    49    43    1
    55    30    24   ar
    56    18    19    1
    57    22    23    1
@<TRIPOS>MOLECULE
*****
 51 57 0 0 0
SMALL
GASTEIGER

@<TRIPOS>ATOM
      1 C          58.7265   86.9166    8.5682 C.3     1  UNL1        0.0312
      2 C          59.5874   88.1056    8.2596 C.2     1  UNL1        0.0136
      3 C          59.3754   88.8757    6.9899 C.2     1  UNL1        0.0107
      4 C          60.2362   90.0646    6.6813 C.2     1  UNL1        0.0509
      5 C          61.3091   90.4836    7.6423 C.2     1  UNL1        0.0613
      6 C          61.5211   89.7134    8.9119 C.2     1  UNL1        0.2246
      7 N          62.4927   89.8880   10.0413 N.2     1  UNL1       -0.0378
      8 C          62.2322   88.8069   11.0480 C.2     1  UNL1        0.3605
      9 N          61.0998   87.9642   10.5407 N.2     1  UNL1       -0.0547
     10 C          60.6602   88.5245    9.2205 C.3     1  UNL1        0.2976
     11 C          62.9741   88.6041   12.3358 C.3     1  UNL1        0.2246
     12 C          63.5502   89.7827   13.0631 C.2     1  UNL1        0.0436
     13 C          64.2920   89.5798   14.3510 C.2     1  UNL1        0.0288
     14 C          64.4577   88.1984   14.9116 C.2     1  UNL1        0.0896
     15 N          63.8817   87.0198   14.1842 N.am    1  UNL1       -0.1770
     16 C          63.1398   87.2227   12.8964 C.2     1  UNL1        0.2627
     17 O          62.5637   86.0441   12.1691 O.2     1  UNL1       -0.2719
     18 N          63.3845   91.1642   12.5027 N.pl3   1  UNL1       -0.3329
     19 H          62.6769   91.7544   12.8493 H       1  UNL1        0.1466
     20 C          64.2968   91.6464   11.4141 C.3     1  UNL1        0.1211
     21 C          65.2769   92.7478   11.6900 C.3     1  UNL1        0.1522
     22 O          65.1095   94.0838   11.0287 O.3     1  UNL1       -0.3783
     23 H          64.3246   94.0665   10.4591 H       1  UNL1        0.2109
     24 C          66.4244   92.5134   12.6272 C.ar    1  UNL1        0.0067
     25 C          67.7177   91.9607   12.1059 C.ar    1  UNL1       -0.0018
     26 C          68.8651   91.7263   13.0432 C.ar    1  UNL1        0.0006
     27 C          68.7193   92.0445   14.5017 C.ar    1  UNL1        0.0114
     28 C          67.4259   92.5972   15.0230 C.ar    1  UNL1        0.0574
     29 CL         67.2801   92.9155   16.4816 Cl      1  UNL1       -0.0823
     30 C          66.2785   92.8317   14.0858 C.ar    1  UNL1        0.0095
     31 N          60.0241   90.8348    5.4116 N.pl3   1  UNL1       -0.3073
     32 C          58.6369   91.2207    4.9912 C.3     1  UNL1        0.0922
     33 C          58.4248   91.9908    3.7216 C.3     1  UNL1        0.0374
     34 C          59.6000   92.3750    2.8723 C.3     1  UNL1        0.0610
     35 C          60.9873   91.9891    3.2927 C.3     1  UNL1        0.0374
     36 C          61.1993   91.2190    4.5623 C.3     1  UNL1        0.0922
     37 N          59.3881   93.1451    1.6027 N.3     1  UNL1       -0.2710
     38 C          58.6487   92.5166    0.4589 C.3     1  UNL1        0.0939
     39 C          58.4367   93.2866   -0.8108 C.3     1  UNL1        0.1123
     40 N          58.9641   94.6852   -0.9367 N.am    1  UNL1       -0.2612
     41 C          58.7522   95.4553   -2.2063 C.2     1  UNL1        0.3073
     42 O          59.2796   96.8538   -2.3322 O.2     1  UNL1       -0.2523
     43 N          58.0127   94.8267   -3.3501 N.am    1  UNL1       -0.2612
     44 C          57.4853   93.4282   -3.2242 C.3     1  UNL1        0.1123
     45 C          56.7458   92.7997   -4.3680 C.3     1  UNL1        0.0940
     46 N          56.5339   93.5698   -5.6377 N.3     1  UNL1       -0.2686
     47 C          55.7944   92.9412   -6.7815 C.3     1  UNL1        0.0897
     48 C          57.0613   94.9683   -5.7636 C.3     1  UNL1        0.0940
     49 C          57.8007   95.5968   -4.6198 C.3     1  UNL1        0.1123
     50 C          59.7036   95.3136    0.2071 C.3     1  UNL1        0.1123
     51 C          59.9155   94.5436    1.4768 C.3     1  UNL1        0.0939
@<TRIPOS>BOND
     1     1     2    1
     2     2     3    2
     3     3     4    1
     4     4    31    1
     5    31    32    1
     6    32    33    1
     7    33    34    1
     8    34    37    1
     9    37    38    1
    10    38    39    1
    11    39    40    1
    12    40    41   am
    13    41    42    2
    14    41    43   am
    15    43    44    1
    16    44    45    1
    17    45    46    1
    18    46    47    1
    19    46    48    1
    20    48    49    1
    21    40    50    1
    22    50    51    1
    23    34    35    1
    24    35    36    1
    25     4     5    2
    26     5     6    1
    27     6     7    2
    28     7     8    1
    29     8    11    1
    30    11    12    1
    31    12    18    1
    32    18    20    1
    33    20    21    1
    34    21    22    1
    35    21    24    1
    36    24    25   ar
    37    25    26   ar
    38    26    27   ar
    39    27    28   ar
    40    28    29    1
    41    28    30   ar
    42    12    13    2
    43    13    14    1
    44    14    15    2
    45    15    16    1
    46    16    17    2
    47     8     9    2
    48     9    10    1
    49    10     2    1
    50    36    31    1
    51    10     6    1
    52    51    37    1
    53    16    11    1
    54    49    43    1
    55    30    24   ar
    56    18    19    1
    57    22    23    1
@<TRIPOS>MOLECULE
*****
 51 57 0 0 0
SMALL
GASTEIGER

@<TRIPOS>ATOM
      1 C          58.2746   86.8075    8.8081 C.3     1  UNL1        0.0312
      2 C          59.3312   87.8290    8.5078 C.2     1  UNL1        0.0136
      3 C          59.2134   88.6934    7.2876 C.2     1  UNL1        0.0107
      4 C          60.2699   89.7148    6.9872 C.2     1  UNL1        0.0509
      5 C          61.4444   89.8719    7.9070 C.2     1  UNL1        0.0613
      6 C          61.5622   89.0075    9.1272 C.2     1  UNL1        0.2246
      7 N          62.5983   88.9348   10.2095 N.2     1  UNL1       -0.0378
      8 C          62.1821   87.8684   11.1787 C.2     1  UNL1        0.3605
      9 N          60.8887   87.2820   10.6955 N.2     1  UNL1       -0.0547
     10 C          60.5056   87.9861    9.4276 C.3     1  UNL1        0.2976
     11 C          62.9281   87.4599   12.4142 C.3     1  UNL1        0.2246
     12 C          63.6405   88.4929   13.2361 C.2     1  UNL1        0.0436
     13 C          64.3866   88.0844   14.4716 C.2     1  UNL1        0.0288
     14 C          64.4203   86.6430   14.8854 C.2     1  UNL1        0.0896
     15 N          63.7079   85.6100   14.0635 N.am    1  UNL1       -0.1770
     16 C          62.9618   86.0185   12.8280 C.2     1  UNL1        0.2627
     17 O          62.2494   84.9855   12.0061 O.2     1  UNL1       -0.2719
     18 N          63.6069   89.9343   12.8224 N.pl3   1  UNL1       -0.3329
     19 H          63.8301   90.1863   11.8973 H       1  UNL1        0.1466
     20 C          63.2331   90.9919   13.8183 C.3     1  UNL1        0.1211
     21 C          64.0496   91.1716   15.0637 C.3     1  UNL1        0.1522
     22 O          63.4564   90.8476   16.4027 O.3     1  UNL1       -0.3783
     23 H          62.5449   90.5372   16.2860 H       1  UNL1        0.2109
     24 C          65.4594   91.6752   14.9699 C.ar    1  UNL1        0.0067
     25 C          66.0477   92.4720   16.0964 C.ar    1  UNL1       -0.0018
     26 C          67.4575   92.9757   16.0027 C.ar    1  UNL1        0.0006
     27 C          68.2791   92.6825   14.7824 C.ar    1  UNL1        0.0114
     28 C          67.6908   91.8858   13.6559 C.ar    1  UNL1        0.0574
     29 CL         68.5124   91.5927   12.4356 Cl      1  UNL1       -0.0823
     30 C          66.2810   91.3821   13.7496 C.ar    1  UNL1        0.0095
     31 N          60.1521   90.5793    5.7670 N.pl3   1  UNL1       -0.3073
     32 C          61.3619   90.8567    4.9247 C.3     1  UNL1        0.0922
     33 C          61.2441   91.7211    3.7045 C.3     1  UNL1        0.0374
     34 C          59.9165   92.3081    3.3266 C.3     1  UNL1        0.0610
     35 C          58.7067   92.0307    4.1688 C.3     1  UNL1        0.0374
     36 C          58.8245   91.1663    5.3890 C.3     1  UNL1        0.0922
     37 N          59.7986   93.1725    2.1064 N.3     1  UNL1       -0.2710
     38 C          58.6802   92.9468    1.1325 C.3     1  UNL1        0.0939
     39 C          58.5623   93.8112   -0.0877 C.3     1  UNL1        0.1123
     40 N          59.5626   94.9014   -0.3341 N.am    1  UNL1       -0.2612
     41 C          59.4447   95.7658   -1.5542 C.2     1  UNL1        0.3073
     42 O          60.4451   96.8560   -1.8006 O.2     1  UNL1       -0.2523
     43 N          58.3264   95.5400   -2.5280 N.am    1  UNL1       -0.2612
     44 C          57.3260   94.4498   -2.2816 C.3     1  UNL1        0.1123
     45 C          56.2076   94.2240   -3.2554 C.3     1  UNL1        0.0940
     46 N          56.0897   95.0884   -4.4757 N.3     1  UNL1       -0.2686
     47 C          54.9713   94.8626   -5.4495 C.3     1  UNL1        0.0897
     48 C          57.0900   96.1786   -4.7221 C.3     1  UNL1        0.0940
     49 C          58.2084   96.4043   -3.7482 C.3     1  UNL1        0.1123
     50 C          60.6810   95.1271    0.6398 C.3     1  UNL1        0.1123
     51 C          60.7990   94.2627    1.8600 C.3     1  UNL1        0.0939
@<TRIPOS>BOND
     1     1     2    1
     2     2     3    2
     3     3     4    1
     4     4    31    1
     5    31    32    1
     6    32    33    1
     7    33    34    1
     8    34    37    1
     9    37    38    1
    10    38    39    1
    11    39    40    1
    12    40    41   am
    13    41    42    2
    14    41    43   am
    15    43    44    1
    16    44    45    1
    17    45    46    1
    18    46    47    1
    19    46    48    1
    20    48    49    1
    21    40    50    1
    22    50    51    1
    23    34    35    1
    24    35    36    1
    25     4     5    2
    26     5     6    1
    27     6     7    2
    28     7     8    1
    29     8    11    1
    30    11    12    1
    31    12    18    1
    32    18    20    1
    33    20    21    1
    34    21    22    1
    35    21    24    1
    36    24    25   ar
    37    25    26   ar
    38    26    27   ar
    39    27    28   ar
    40    28    29    1
    41    28    30   ar
    42    12    13    2
    43    13    14    1
    44    14    15    2
    45    15    16    1
    46    16    17    2
    47     8     9    2
    48     9    10    1
    49    10     2    1
    50    36    31    1
    51    10     6    1
    52    51    37    1
    53    16    11    1
    54    49    43    1
    55    30    24   ar
    56    18    19    1
    57    22    23    1
@<TRIPOS>MOLECULE
*****
 51 57 0 0 0
SMALL
GASTEIGER

@<TRIPOS>ATOM
      1 C          58.6174   87.1295    8.3661 C.3     1  UNL1        0.0312
      2 C          59.5851   88.2439    8.0985 C.2     1  UNL1        0.0136
      3 C          59.4813   89.0392    6.8309 C.2     1  UNL1        0.0107
      4 C          60.4490   90.1535    6.5633 C.2     1  UNL1        0.0509
      5 C          61.5206   90.4728    7.5633 C.2     1  UNL1        0.0613
      6 C          61.6244   89.6775    8.8309 C.2     1  UNL1        0.2246
      7 N          62.5688   89.7605    9.9933 N.2     1  UNL1       -0.0378
      8 C          62.1847   88.6974   10.9793 C.2     1  UNL1        0.3605
      9 N          61.0030   87.9573   10.4263 N.2     1  UNL1       -0.0547
     10 C          60.6566   88.5631    9.0985 C.3     1  UNL1        0.2976
     11 C          62.8633   88.4225   12.2885 C.3     1  UNL1        0.2246
     12 C          63.3568   89.5611   13.1311 C.2     1  UNL1        0.0436
     13 C          64.0353   89.2862   14.4403 C.2     1  UNL1        0.0288
     14 C          64.2204   87.8727   14.9069 C.2     1  UNL1        0.0896
     15 N          63.7270   86.7341   14.0643 N.am    1  UNL1       -0.1770
     16 C          63.0484   87.0090   12.7551 C.2     1  UNL1        0.2627
     17 O          62.5549   85.8704   11.9125 O.2     1  UNL1       -0.2719
     18 N          63.1717   90.9747   12.6646 N.pl3   1  UNL1       -0.3329
     19 H          62.4069   91.5036   12.9879 H       1  UNL1        0.1466
     20 C          64.1519   91.5824   11.7055 C.3     1  UNL1        0.1211
     21 C          65.2130   92.5157   12.2085 C.3     1  UNL1        0.1522
     22 O          65.3737   92.7442   13.6822 O.3     1  UNL1       -0.3783
     23 H          64.7178   92.2169   14.1646 H       1  UNL1        0.2109
     24 C          66.1135   93.2204   11.2377 C.ar    1  UNL1        0.0067
     25 C          66.0497   94.7130   11.1031 C.ar    1  UNL1       -0.0018
     26 C          66.9502   95.4177   10.1323 C.ar    1  UNL1        0.0006
     27 C          67.9145   94.6299    9.2960 C.ar    1  UNL1        0.0114
     28 C          67.9783   93.1373    9.4305 C.ar    1  UNL1        0.0574
     29 CL         68.9426   92.3495    8.5943 Cl      1  UNL1       -0.0823
     30 C          67.0778   92.4326   10.4014 C.ar    1  UNL1        0.0095
     31 N          60.3452   90.9488    5.2956 N.pl3   1  UNL1       -0.3073
     32 C          59.0159   91.4852    4.8536 C.3     1  UNL1        0.0922
     33 C          58.9121   92.2805    3.5860 C.3     1  UNL1        0.0374
     34 C          60.1375   92.5393    2.7605 C.3     1  UNL1        0.0610
     35 C          61.4667   92.0028    3.2026 C.3     1  UNL1        0.0374
     36 C          61.5705   91.2076    4.4701 C.3     1  UNL1        0.0922
     37 N          60.0338   93.3345    1.4929 N.3     1  UNL1       -0.2710
     38 C          61.2233   93.4619    0.5879 C.3     1  UNL1        0.0939
     39 C          61.1196   94.2571   -0.6797 C.3     1  UNL1        0.1123
     40 N          59.8264   94.9250   -1.0424 N.am    1  UNL1       -0.2612
     41 C          59.7227   95.7202   -2.3100 C.2     1  UNL1        0.3073
     42 O          58.4295   96.3880   -2.6728 O.2     1  UNL1       -0.2523
     43 N          60.9123   95.8475   -3.2149 N.am    1  UNL1       -0.2612
     44 C          62.2054   95.1797   -2.8521 C.3     1  UNL1        0.1123
     45 C          63.3950   95.3070   -3.7570 C.3     1  UNL1        0.0940
     46 N          63.2913   96.1023   -5.0247 N.3     1  UNL1       -0.2686
     47 C          64.4809   96.2296   -5.9295 C.3     1  UNL1        0.0897
     48 C          61.9981   96.7701   -5.3874 C.3     1  UNL1        0.0940
     49 C          60.8086   96.6427   -4.4825 C.3     1  UNL1        0.1123
     50 C          58.6369   94.7976   -0.1375 C.3     1  UNL1        0.1123
     51 C          58.7406   94.0023    1.1301 C.3     1  UNL1        0.0939
@<TRIPOS>BOND
     1     1     2    1
     2     2     3    2
     3     3     4    1
     4     4    31    1
     5    31    32    1
     6    32    33    1
     7    33    34    1
     8    34    37    1
     9    37    38    1
    10    38    39    1
    11    39    40    1
    12    40    41   am
    13    41    42    2
    14    41    43   am
    15    43    44    1
    16    44    45    1
    17    45    46    1
    18    46    47    1
    19    46    48    1
    20    48    49    1
    21    40    50    1
    22    50    51    1
    23    34    35    1
    24    35    36    1
    25     4     5    2
    26     5     6    1
    27     6     7    2
    28     7     8    1
    29     8    11    1
    30    11    12    1
    31    12    18    1
    32    18    20    1
    33    20    21    1
    34    21    22    1
    35    21    24    1
    36    24    25   ar
    37    25    26   ar
    38    26    27   ar
    39    27    28   ar
    40    28    29    1
    41    28    30   ar
    42    12    13    2
    43    13    14    1
    44    14    15    2
    45    15    16    1
    46    16    17    2
    47     8     9    2
    48     9    10    1
    49    10     2    1
    50    36    31    1
    51    10     6    1
    52    51    37    1
    53    16    11    1
    54    49    43    1
    55    30    24   ar
    56    18    19    1
    57    22    23    1
@<TRIPOS>MOLECULE
*****
 51 57 0 0 0
SMALL
GASTEIGER

@<TRIPOS>ATOM
      1 C          59.0394   89.0429   11.6839 C.3     1  UNL1        0.0312
      2 C          59.8179   88.7466   10.4365 C.2     1  UNL1        0.0136
      3 C          59.6153   89.5847    9.2091 C.2     1  UNL1        0.0107
      4 C          60.3937   89.2885    7.9617 C.2     1  UNL1        0.0509
      5 C          61.3749   88.1540    7.9415 C.2     1  UNL1        0.0613
      6 C          61.5775   87.3158    9.1689 C.2     1  UNL1        0.2246
      7 N          62.4681   86.1411    9.4462 N.2     1  UNL1       -0.0378
      8 C          62.2400   85.7114   10.8651 C.2     1  UNL1        0.3605
      9 N          61.2085   86.6205   11.4647 N.2     1  UNL1       -0.0547
     10 C          60.7990   87.6121   10.4163 C.3     1  UNL1        0.2976
     11 C          62.9234   84.5725   11.5621 C.3     1  UNL1        0.2246
     12 C          63.3121   84.7011   13.0052 C.2     1  UNL1        0.0436
     13 C          63.9956   83.5621   13.7021 C.2     1  UNL1        0.0288
     14 C          64.2903   82.2946   12.9561 C.2     1  UNL1        0.0896
     15 N          63.9016   82.1660   11.5131 N.am    1  UNL1       -0.1770
     16 C          63.2182   83.3050   10.8161 C.2     1  UNL1        0.2627
     17 O          62.8295   83.1764    9.3731 O.2     1  UNL1       -0.2719
     18 N          63.0174   85.9685   13.7513 N.pl3   1  UNL1       -0.3329
     19 H          62.0854   86.2575   13.8818 H       1  UNL1        0.1466
     20 C          64.1427   86.7957   14.2985 C.3     1  UNL1        0.1211
     21 C          63.8743   88.1769   14.8184 C.3     1  UNL1        0.1522
     22 O          63.3980   88.3683   16.2279 O.3     1  UNL1       -0.3783
     23 H          63.3167   87.5045   16.6618 H       1  UNL1        0.2109
     24 C          64.0821   89.3666   13.9289 C.ar    1  UNL1        0.0067
     25 C          65.0268   90.4561   14.3420 C.ar    1  UNL1       -0.0018
     26 C          65.2346   91.6458   13.4525 C.ar    1  UNL1        0.0006
     27 C          64.4977   91.7462   12.1498 C.ar    1  UNL1        0.0114
     28 C          63.5530   90.6568   11.7367 C.ar    1  UNL1        0.0574
     29 CL         62.8161   90.7572   10.4341 Cl      1  UNL1       -0.0823
     30 C          63.3452   89.4670   12.6263 C.ar    1  UNL1        0.0095
     31 N          60.1910   90.1267    6.7343 N.pl3   1  UNL1       -0.3073
     32 C          61.3684   90.5216    5.8930 C.3     1  UNL1        0.0922
     33 C          61.1658   91.3598    4.6656 C.3     1  UNL1        0.0374
     34 C          59.7858   91.8030    4.2796 C.3     1  UNL1        0.0610
     35 C          58.6084   91.4080    5.1208 C.3     1  UNL1        0.0374
     36 C          58.8110   90.5698    6.3482 C.3     1  UNL1        0.0922
     37 N          59.5831   92.6411    3.0522 N.3     1  UNL1       -0.2710
     38 C          58.8132   92.0921    1.8878 C.3     1  UNL1        0.0939
     39 C          58.6104   92.9301    0.6604 C.3     1  UNL1        0.1123
     40 N          59.1775   94.3174    0.5974 N.am    1  UNL1       -0.2612
     41 C          58.9748   95.1555   -0.6299 C.2     1  UNL1        0.3073
     42 O          59.5419   96.5427   -0.6929 O.2     1  UNL1       -0.2523
     43 N          58.2049   94.6064   -1.7943 N.am    1  UNL1       -0.2612
     44 C          57.6378   93.2191   -1.7313 C.3     1  UNL1        0.1123
     45 C          56.8679   92.6700   -2.8956 C.3     1  UNL1        0.0940
     46 N          56.6651   93.5082   -4.1231 N.3     1  UNL1       -0.2686
     47 C          55.8953   92.9590   -5.2874 C.3     1  UNL1        0.0897
     48 C          57.2322   94.8954   -4.1861 C.3     1  UNL1        0.0940
     49 C          58.0021   95.4445   -3.0217 C.3     1  UNL1        0.1123
     50 C          59.9474   94.8664    1.7618 C.3     1  UNL1        0.1123
     51 C          60.1502   94.0283    2.9892 C.3     1  UNL1        0.0939
@<TRIPOS>BOND
     1     1     2    1
     2     2     3    2
     3     3     4    1
     4     4    31    1
     5    31    32    1
     6    32    33    1
     7    33    34    1
     8    34    37    1
     9    37    38    1
    10    38    39    1
    11    39    40    1
    12    40    41   am
    13    41    42    2
    14    41    43   am
    15    43    44    1
    16    44    45    1
    17    45    46    1
    18    46    47    1
    19    46    48    1
    20    48    49    1
    21    40    50    1
    22    50    51    1
    23    34    35    1
    24    35    36    1
    25     4     5    2
    26     5     6    1
    27     6     7    2
    28     7     8    1
    29     8    11    1
    30    11    12    1
    31    12    18    1
    32    18    20    1
    33    20    21    1
    34    21    22    1
    35    21    24    1
    36    24    25   ar
    37    25    26   ar
    38    26    27   ar
    39    27    28   ar
    40    28    29    1
    41    28    30   ar
    42    12    13    2
    43    13    14    1
    44    14    15    2
    45    15    16    1
    46    16    17    2
    47     8     9    2
    48     9    10    1
    49    10     2    1
    50    36    31    1
    51    10     6    1
    52    51    37    1
    53    16    11    1
    54    49    43    1
    55    30    24   ar
    56    18    19    1
    57    22    23    1
@<TRIPOS>MOLECULE
*****
 51 57 0 0 0
SMALL
GASTEIGER

@<TRIPOS>ATOM
      1 C          59.2651   88.9877   11.8223 C.3     1  UNL1        0.0312
      2 C          59.9392   88.6398   10.5282 C.2     1  UNL1        0.0136
      3 C          59.7286   89.5003    9.3178 C.2     1  UNL1        0.0107
      4 C          60.4026   89.1525    8.0238 C.2     1  UNL1        0.0509
      5 C          61.2875   87.9441    7.9401 C.2     1  UNL1        0.0613
      6 C          61.4981   87.0836    9.1506 C.2     1  UNL1        0.2246
      7 N          62.3080   85.8401    9.3694 N.2     1  UNL1       -0.0378
      8 C          62.1344   85.4194   10.7987 C.2     1  UNL1        0.3605
      9 N          61.2172   86.4029   11.4632 N.2     1  UNL1       -0.0547
     10 C          60.8240   87.4314   10.4446 C.3     1  UNL1        0.2976
     11 C          62.7668   84.2250   11.4492 C.3     1  UNL1        0.2246
     12 C          62.7490   84.0871   12.9428 C.2     1  UNL1        0.0436
     13 C          63.3815   82.8926   13.5933 C.2     1  UNL1        0.0288
     14 C          64.0318   81.8360   12.7503 C.2     1  UNL1        0.0896
     15 N          64.0496   81.9738   11.2568 N.am    1  UNL1       -0.1770
     16 C          63.4171   83.1683   10.6063 C.2     1  UNL1        0.2627
     17 O          63.4349   83.3061    9.1127 O.2     1  UNL1       -0.2719
     18 N          62.0987   85.1437   13.7858 N.pl3   1  UNL1       -0.3329
     19 H          61.2889   85.6014   13.4634 H       1  UNL1        0.1466
     20 C          62.6822   85.5030   15.1201 C.3     1  UNL1        0.1211
     21 C          63.9558   86.2922   15.1938 C.3     1  UNL1        0.1522
     22 O          65.2782   85.5953   15.0687 O.3     1  UNL1       -0.3783
     23 H          65.1321   84.6443   14.9459 H       1  UNL1        0.2109
     24 C          63.9069   87.7781   15.3925 C.ar    1  UNL1        0.0067
     25 C          63.2564   88.3501   16.6172 C.ar    1  UNL1       -0.0018
     26 C          63.2075   89.8360   16.8159 C.ar    1  UNL1        0.0006
     27 C          63.8091   90.7501   15.7899 C.ar    1  UNL1        0.0114
     28 C          64.4595   90.1782   14.5653 C.ar    1  UNL1        0.0574
     29 CL         65.0611   91.0923   13.5394 Cl      1  UNL1       -0.0823
     30 C          64.5084   88.6922   14.3666 C.ar    1  UNL1        0.0095
     31 N          60.1920   90.0130    6.8133 N.pl3   1  UNL1       -0.3073
     32 C          58.8032   90.4076    6.4061 C.3     1  UNL1        0.0922
     33 C          58.5926   91.2681    5.1957 C.3     1  UNL1        0.0374
     34 C          59.7706   91.7340    4.3925 C.3     1  UNL1        0.0610
     35 C          61.1593   91.3395    4.7997 C.3     1  UNL1        0.0374
     36 C          61.3700   90.4790    6.0101 C.3     1  UNL1        0.0922
     37 N          59.5600   92.5945    3.1821 N.3     1  UNL1       -0.2710
     38 C          58.8110   92.0553    1.9996 C.3     1  UNL1        0.0939
     39 C          58.6003   92.9157    0.7891 C.3     1  UNL1        0.1123
     40 N          59.1387   94.3155    0.7611 N.am    1  UNL1       -0.2612
     41 C          58.9281   95.1759   -0.4493 C.2     1  UNL1        0.3073
     42 O          59.4665   96.5757   -0.4774 O.2     1  UNL1       -0.2523
     43 N          58.1791   94.6366   -1.6318 N.am    1  UNL1       -0.2612
     44 C          57.6407   93.2369   -1.6037 C.3     1  UNL1        0.1123
     45 C          56.8916   92.6975   -2.7861 C.3     1  UNL1        0.0940
     46 N          56.6810   93.5581   -3.9966 N.3     1  UNL1       -0.2686
     47 C          55.9320   93.0187   -5.1791 C.3     1  UNL1        0.0897
     48 C          57.2194   94.9578   -4.0247 C.3     1  UNL1        0.0940
     49 C          57.9684   95.4971   -2.8422 C.3     1  UNL1        0.1123
     50 C          59.8877   94.8547    1.9435 C.3     1  UNL1        0.1123
     51 C          60.0984   93.9943    3.1540 C.3     1  UNL1        0.0939
@<TRIPOS>BOND
     1     1     2    1
     2     2     3    2
     3     3     4    1
     4     4    31    1
     5    31    32    1
     6    32    33    1
     7    33    34    1
     8    34    37    1
     9    37    38    1
    10    38    39    1
    11    39    40    1
    12    40    41   am
    13    41    42    2
    14    41    43   am
    15    43    44    1
    16    44    45    1
    17    45    46    1
    18    46    47    1
    19    46    48    1
    20    48    49    1
    21    40    50    1
    22    50    51    1
    23    34    35    1
    24    35    36    1
    25     4     5    2
    26     5     6    1
    27     6     7    2
    28     7     8    1
    29     8    11    1
    30    11    12    1
    31    12    18    1
    32    18    20    1
    33    20    21    1
    34    21    22    1
    35    21    24    1
    36    24    25   ar
    37    25    26   ar
    38    26    27   ar
    39    27    28   ar
    40    28    29    1
    41    28    30   ar
    42    12    13    2
    43    13    14    1
    44    14    15    2
    45    15    16    1
    46    16    17    2
    47     8     9    2
    48     9    10    1
    49    10     2    1
    50    36    31    1
    51    10     6    1
    52    51    37    1
    53    16    11    1
    54    49    43    1
    55    30    24   ar
    56    18    19    1
    57    22    23    1
