@<TRIPOS>MOLECULE
*****
 44 48 0 0 0
SMALL
GASTEIGER

@<TRIPOS>ATOM
      1 N          61.6126   88.4495   10.4390 N.am    1  UNL1       -0.2733
      2 C          62.3264   87.6316   11.4742 C.2     1  UNL1        0.2462
      3 O          63.0528   88.3111   12.5970 O.2     1  UNL1       -0.2730
      4 C          62.3139   86.1342   11.3865 C.3     1  UNL1        0.1759
      5 N          61.5876   85.4547   10.2636 N.am    1  UNL1       -0.2951
      6 C          60.8738   86.2726    9.2285 C.2     1  UNL1        0.2390
      7 O          60.1475   85.5931    8.1057 O.2     1  UNL1       -0.2734
      8 C          60.8863   87.7700    9.3162 C.3     1  UNL1        0.1314
      9 C          60.8988   89.2674    9.4039 C.3     1  UNL1        0.0445
     10 C          60.1850   90.0852    8.3687 C.3     1  UNL1        0.0745
     11 N          59.4587   89.4057    7.2459 N.3     1  UNL1       -0.2688
     12 C          59.4462   87.9084    7.1582 C.3     1  UNL1        0.0745
     13 C          60.1600   87.0905    8.1933 C.3     1  UNL1        0.0445
     14 H          61.5794   84.4720   10.2061 H       1  UNL1        0.1499
     15 C          63.0278   85.3163   12.4217 C.3     1  UNL1        0.1372
     16 O          63.7963   85.9962   13.5158 O.3     1  UNL1       -0.3823
     17 H          63.7299   86.9579   13.4080 H       1  UNL1        0.2104
     18 C          62.9730   83.8185   12.3627 C.3     1  UNL1        0.0291
     19 C          63.4967   83.0957   11.1571 C.3     1  UNL1        0.0025
     20 C          63.4420   81.5979   11.0982 C.3     1  UNL1        0.0001
     21 C          62.8636   80.8228   12.2448 C.3     1  UNL1        0.0000
     22 C          62.3399   81.5455   13.4504 C.3     1  UNL1        0.0001
     23 C          62.3946   83.0434   13.5093 C.3     1  UNL1        0.0025
     24 C          61.6251   89.9469   10.5267 C.3     1  UNL1        0.0938
     25 C          62.8654   90.7090   10.1650 C.3     1  UNL1        0.0215
     26 C          64.8631   92.2019   10.8935 C.3     1  UNL1        0.0001
     27 C          63.7461   91.2643   11.2448 C.3     1  UNL1        0.0018
     28 C          58.7449   90.2237    6.2107 C.3     1  UNL1        0.0992
     29 C          59.5296   90.9738    5.1756 C.ar    1  UNL1       -0.0059
     30 C          58.8725   92.0620    4.3793 C.ar    1  UNL1        0.0002
     31 C          59.6572   92.8122    3.3441 C.ar    1  UNL1        0.0372
     32 C          61.0990   92.4741    3.1052 C.ar    1  UNL1        0.1453
     33 C          61.7560   91.3859    3.9015 C.ar    1  UNL1        0.0372
     34 C          60.9714   90.6358    4.9367 C.ar    1  UNL1        0.0002
     35 O          61.8836   93.2242    2.0701 O.3     1  UNL1       -0.4535
     36 C          61.3206   93.4118    0.6925 C.ar    1  UNL1        0.1453
     37 C          60.3643   92.4028    0.1292 C.ar    1  UNL1        0.0375
     38 C          59.8013   92.5904   -1.2484 C.ar    1  UNL1        0.0043
     39 C          60.1945   93.7871   -2.0628 C.ar    1  UNL1        0.0142
     40 C          61.1508   94.7963   -1.4995 C.ar    1  UNL1        0.0043
     41 C          61.7138   94.6086   -0.1219 C.ar    1  UNL1        0.0375
     42 C          59.6315   93.9747   -3.4404 C.2     1  UNL1        0.0729
     43 O          60.2234   95.0023   -4.3590 O.co2   1  UNL1       -0.5446
     44 O          58.4766   93.1348   -3.8994 O.co2   1  UNL1       -0.5446
@<TRIPOS>UNITY_ATOM_ATTR
43 1
charge -1
@<TRIPOS>BOND
     1    26    27    1
     2    27    25    1
     3    25    24    1
     4    24     1    1
     5     1     2   am
     6     2     3    2
     7     2     4    1
     8     4    15    1
     9    15    16    1
    10    15    18    1
    11    18    19    1
    12    19    20    1
    13    20    21    1
    14    21    22    1
    15    22    23    1
    16     4     5    1
    17     5     6   am
    18     6     7    2
    19     6     8    1
    20     8     9    1
    21     9    10    1
    22    10    11    1
    23    11    28    1
    24    28    29    1
    25    29    30   ar
    26    30    31   ar
    27    31    32   ar
    28    32    35    1
    29    35    36    1
    30    36    37   ar
    31    37    38   ar
    32    38    39   ar
    33    39    42    1
    34    42    43   ar
    35    42    44   ar
    36    39    40   ar
    37    40    41   ar
    38    32    33   ar
    39    33    34   ar
    40    11    12    1
    41    12    13    1
    42     8     1    1
    43    34    29   ar
    44    23    18    1
    45    13     8    1
    46    41    36   ar
    47    16    17    1
    48     5    14    1
@<TRIPOS>MOLECULE
*****
 44 48 0 0 0
SMALL
GASTEIGER

@<TRIPOS>ATOM
      1 N          62.1696   87.4078   11.2081 N.am    1  UNL1       -0.2733
      2 C          63.0149   87.3942   12.4472 C.2     1  UNL1        0.2462
      3 O          63.4349   86.0885   13.0543 O.2     1  UNL1       -0.2730
      4 C          63.4403   88.6864   13.0790 C.3     1  UNL1        0.1759
      5 N          63.0204   89.9922   12.4719 N.am    1  UNL1       -0.2951
      6 C          62.1750   90.0058   11.2329 C.2     1  UNL1        0.2390
      7 O          61.7551   91.3115   10.6258 O.2     1  UNL1       -0.2734
      8 C          61.7496   88.7136   10.6010 C.3     1  UNL1        0.1314
      9 C          61.3242   87.4214    9.9691 C.3     1  UNL1        0.0445
     10 C          60.4789   87.4350    8.7301 C.3     1  UNL1        0.0745
     11 N          60.0590   88.7408    8.1229 N.3     1  UNL1       -0.2688
     12 C          60.4843   90.0329    8.7548 C.3     1  UNL1        0.0745
     13 C          61.3297   90.0193    9.9938 C.3     1  UNL1        0.0445
     14 H          63.2996   90.8403   12.8867 H       1  UNL1        0.1499
     15 C          64.2857   88.6729   14.3181 C.3     1  UNL1        0.1372
     16 O          64.7201   87.3673   14.9154 O.3     1  UNL1       -0.3823
     17 H          64.3715   86.6358   14.3821 H       1  UNL1        0.2104
     18 C          64.6966   89.9648   14.9598 C.3     1  UNL1        0.0291
     19 C          63.8554   90.5624   16.0486 C.3     1  UNL1        0.0025
     20 C          64.2664   91.8544   16.6903 C.3     1  UNL1        0.0001
     21 C          65.5186   92.5489   16.2433 C.3     1  UNL1        0.0000
     22 C          66.3598   91.9514   15.1545 C.3     1  UNL1        0.0001
     23 C          65.9487   90.6593   14.5128 C.3     1  UNL1        0.0025
     24 C          61.7442   86.1156   10.5762 C.3     1  UNL1        0.0938
     25 C          62.7718   85.1931    9.9905 C.3     1  UNL1        0.0215
     26 C          64.2624   83.0769   10.2131 C.3     1  UNL1        0.0001
     27 C          63.0984   83.9008   10.6782 C.3     1  UNL1        0.0018
     28 C          59.2136   88.7543    6.8838 C.3     1  UNL1        0.0992
     29 C          59.2458   89.9410    5.9669 C.ar    1  UNL1       -0.0059
     30 C          60.5485   90.4041    5.3850 C.ar    1  UNL1        0.0002
     31 C          60.5806   91.5908    4.4681 C.ar    1  UNL1        0.0372
     32 C          59.3101   92.3143    4.1330 C.ar    1  UNL1        0.1453
     33 C          58.0075   91.8512    4.7148 C.ar    1  UNL1        0.0372
     34 C          57.9753   90.6646    5.6318 C.ar    1  UNL1        0.0002
     35 O          59.3423   93.5009    3.2160 O.3     1  UNL1       -0.4535
     36 C          60.2179   93.4841    1.9982 C.ar    1  UNL1        0.1453
     37 C          59.9735   92.4782    0.9126 C.ar    1  UNL1        0.0375
     38 C          60.8491   92.4615   -0.3052 C.ar    1  UNL1        0.0043
     39 C          61.9689   93.4506   -0.4376 C.ar    1  UNL1        0.0142
     40 C          62.2132   94.4566    0.6480 C.ar    1  UNL1        0.0043
     41 C          61.3377   94.4734    1.8659 C.ar    1  UNL1        0.0375
     42 C          62.8444   93.4338   -1.6554 C.2     1  UNL1        0.0729
     43 O          62.2629   93.0809   -2.9924 O.co2   1  UNL1       -0.5446
     44 O          64.3014   93.7700   -1.5364 O.co2   1  UNL1       -0.5446
@<TRIPOS>UNITY_ATOM_ATTR
43 1
charge -1
@<TRIPOS>BOND
     1    26    27    1
     2    27    25    1
     3    25    24    1
     4    24     1    1
     5     1     2   am
     6     2     3    2
     7     2     4    1
     8     4    15    1
     9    15    16    1
    10    15    18    1
    11    18    19    1
    12    19    20    1
    13    20    21    1
    14    21    22    1
    15    22    23    1
    16     4     5    1
    17     5     6   am
    18     6     7    2
    19     6     8    1
    20     8     9    1
    21     9    10    1
    22    10    11    1
    23    11    28    1
    24    28    29    1
    25    29    30   ar
    26    30    31   ar
    27    31    32   ar
    28    32    35    1
    29    35    36    1
    30    36    37   ar
    31    37    38   ar
    32    38    39   ar
    33    39    42    1
    34    42    43   ar
    35    42    44   ar
    36    39    40   ar
    37    40    41   ar
    38    32    33   ar
    39    33    34   ar
    40    11    12    1
    41    12    13    1
    42     8     1    1
    43    34    29   ar
    44    23    18    1
    45    13     8    1
    46    41    36   ar
    47    16    17    1
    48     5    14    1
@<TRIPOS>MOLECULE
*****
 44 48 0 0 0
SMALL
GASTEIGER

@<TRIPOS>ATOM
      1 N          61.7003   87.0627   10.3949 N.am    1  UNL1       -0.2733
      2 C          62.5546   86.0688   11.1246 C.2     1  UNL1        0.2462
      3 O          63.1250   86.4137   12.4684 O.2     1  UNL1       -0.2730
      4 C          62.8383   84.7300   10.5107 C.3     1  UNL1        0.1759
      5 N          62.2679   84.3850    9.1669 N.am    1  UNL1       -0.2951
      6 C          61.4137   85.3788    8.4372 C.2     1  UNL1        0.2390
      7 O          60.8433   85.0339    7.0934 O.2     1  UNL1       -0.2734
      8 C          61.1299   86.7177    9.0511 C.3     1  UNL1        0.1314
      9 C          60.8461   88.0565    9.6651 C.3     1  UNL1        0.0445
     10 C          59.9920   89.0504    8.9354 C.3     1  UNL1        0.0745
     11 N          59.4215   88.7054    7.5916 N.3     1  UNL1       -0.2688
     12 C          59.7053   87.3666    6.9776 C.3     1  UNL1        0.0745
     13 C          60.5595   86.3728    7.7074 C.3     1  UNL1        0.0445
     14 H          62.4542   83.5063    8.7639 H       1  UNL1        0.1499
     15 C          63.6926   83.7360   11.2404 C.3     1  UNL1        0.1372
     16 O          65.1696   83.6855   10.9842 O.3     1  UNL1       -0.3823
     17 H          65.4066   84.3565   10.3250 H       1  UNL1        0.2104
     18 C          63.0697   82.7927   12.2264 C.3     1  UNL1        0.0291
     19 C          62.9180   81.3406   11.8823 C.3     1  UNL1        0.0025
     20 C          62.2952   80.3973   12.8682 C.3     1  UNL1        0.0001
     21 C          61.8239   80.9060   14.1983 C.3     1  UNL1        0.0000
     22 C          61.9756   82.3581   14.5424 C.3     1  UNL1        0.0001
     23 C          62.5985   83.3015   13.5564 C.3     1  UNL1        0.0025
     24 C          61.4166   88.4015   11.0089 C.3     1  UNL1        0.0938
     25 C          62.5198   89.4065   11.1597 C.3     1  UNL1        0.0215
     26 C          63.8532   89.6460   13.3766 C.3     1  UNL1        0.0001
     27 C          62.7374   90.0893   12.4774 C.3     1  UNL1        0.0018
     28 C          58.5673   89.6994    6.8619 C.3     1  UNL1        0.0992
     29 C          59.1663   90.5564    5.7864 C.ar    1  UNL1       -0.0059
     30 C          60.6273   90.4452    5.4654 C.ar    1  UNL1        0.0002
     31 C          61.2263   91.3023    4.3899 C.ar    1  UNL1        0.0372
     32 C          60.3642   92.2706    3.6354 C.ar    1  UNL1        0.1453
     33 C          58.9032   92.3818    3.9564 C.ar    1  UNL1        0.0372
     34 C          58.3042   91.5247    5.0319 C.ar    1  UNL1        0.0002
     35 O          60.9632   93.1277    2.5600 O.3     1  UNL1       -0.4535
     36 C          60.2087   93.3692    1.2862 C.ar    1  UNL1        0.1453
     37 C          59.6113   94.7175    1.0125 C.ar    1  UNL1        0.0375
     38 C          58.8568   94.9590   -0.2613 C.ar    1  UNL1        0.0043
     39 C          58.6999   93.8522   -1.2614 C.ar    1  UNL1        0.0142
     40 C          59.2974   92.5037   -0.9877 C.ar    1  UNL1        0.0043
     41 C          60.0518   92.2622    0.2861 C.ar    1  UNL1        0.0375
     42 C          57.9455   94.0937   -2.5351 C.2     1  UNL1        0.0729
     43 O          56.5141   94.5398   -2.4860 O.co2   1  UNL1       -0.5446
     44 O          58.6223   93.8891   -3.8580 O.co2   1  UNL1       -0.5446
@<TRIPOS>UNITY_ATOM_ATTR
43 1
charge -1
@<TRIPOS>BOND
     1    26    27    1
     2    27    25    1
     3    25    24    1
     4    24     1    1
     5     1     2   am
     6     2     3    2
     7     2     4    1
     8     4    15    1
     9    15    16    1
    10    15    18    1
    11    18    19    1
    12    19    20    1
    13    20    21    1
    14    21    22    1
    15    22    23    1
    16     4     5    1
    17     5     6   am
    18     6     7    2
    19     6     8    1
    20     8     9    1
    21     9    10    1
    22    10    11    1
    23    11    28    1
    24    28    29    1
    25    29    30   ar
    26    30    31   ar
    27    31    32   ar
    28    32    35    1
    29    35    36    1
    30    36    37   ar
    31    37    38   ar
    32    38    39   ar
    33    39    42    1
    34    42    43   ar
    35    42    44   ar
    36    39    40   ar
    37    40    41   ar
    38    32    33   ar
    39    33    34   ar
    40    11    12    1
    41    12    13    1
    42     8     1    1
    43    34    29   ar
    44    23    18    1
    45    13     8    1
    46    41    36   ar
    47    16    17    1
    48     5    14    1
@<TRIPOS>MOLECULE
*****
 44 48 0 0 0
SMALL
GASTEIGER

@<TRIPOS>ATOM
      1 N          62.2720   87.5448   11.1667 N.am    1  UNL1       -0.2733
      2 C          63.1161   87.5476   12.4067 C.2     1  UNL1        0.2462
      3 O          63.8555   86.3075   12.8135 O.2     1  UNL1       -0.2730
      4 C          63.2208   88.7905   13.2399 C.3     1  UNL1        0.1759
      5 N          62.4814   90.0306   12.8331 N.am    1  UNL1       -0.2951
      6 C          61.6374   90.0278   11.5932 C.2     1  UNL1        0.2390
      7 O          60.8980   91.2679   11.1864 O.2     1  UNL1       -0.2734
      8 C          61.5327   88.7849   10.7599 C.3     1  UNL1        0.1314
      9 C          61.4280   87.5420    9.9267 C.3     1  UNL1        0.0445
     10 C          60.5839   87.5392    8.6868 C.3     1  UNL1        0.0745
     11 N          59.8446   88.7793    8.2800 N.3     1  UNL1       -0.2688
     12 C          59.9492   90.0222    9.1132 C.3     1  UNL1        0.0745
     13 C          60.7933   90.0250   10.3531 C.3     1  UNL1        0.0445
     14 H          62.5501   90.8464   13.3800 H       1  UNL1        0.1499
     15 C          64.0649   88.7933   14.4799 C.3     1  UNL1        0.1372
     16 O          65.2693   89.6834   14.5653 O.3     1  UNL1       -0.3823
     17 H          65.3586   90.1865   13.7408 H       1  UNL1        0.2104
     18 C          63.7045   87.9062   15.6345 C.3     1  UNL1        0.0291
     19 C          63.0227   88.4833   16.8395 C.3     1  UNL1        0.0025
     20 C          62.6624   87.5961   17.9941 C.3     1  UNL1        0.0001
     21 C          62.9839   86.1318   17.9436 C.3     1  UNL1        0.0000
     22 C          63.6657   85.5547   16.7386 C.3     1  UNL1        0.0001
     23 C          64.0260   86.4419   15.5840 C.3     1  UNL1        0.0025
     24 C          62.1674   86.3019   10.3335 C.3     1  UNL1        0.0938
     25 C          62.3426   84.9551   10.9703 C.3     1  UNL1        0.0215
     26 C          64.3367   83.2900   10.9981 C.3     1  UNL1        0.0001
     27 C          63.1671   83.9044   10.2877 C.3     1  UNL1        0.0018
     28 C          59.0005   88.7765    7.0400 C.3     1  UNL1        0.0992
     29 C          59.0964   89.9122    6.0649 C.ar    1  UNL1       -0.0059
     30 C          57.8523   90.6123    5.6042 C.ar    1  UNL1        0.0002
     31 C          57.9482   91.7481    4.6290 C.ar    1  UNL1        0.0372
     32 C          59.2882   92.1838    4.1146 C.ar    1  UNL1        0.1453
     33 C          60.5323   91.4837    4.5753 C.ar    1  UNL1        0.0372
     34 C          60.4364   90.3480    5.5504 C.ar    1  UNL1        0.0002
     35 O          59.3841   93.3195    3.1395 O.3     1  UNL1       -0.4535
     36 C          60.6661   93.5683    2.4017 C.ar    1  UNL1        0.1453
     37 C          60.9718   94.9371    1.8698 C.ar    1  UNL1        0.0375
     38 C          62.2539   95.1860    1.1320 C.ar    1  UNL1        0.0043
     39 C          63.2303   94.0661    0.9261 C.ar    1  UNL1        0.0142
     40 C          62.9246   92.6972    1.4579 C.ar    1  UNL1        0.0043
     41 C          61.6425   92.4483    2.1958 C.ar    1  UNL1        0.0375
     42 C          64.5124   94.3149    0.1883 C.2     1  UNL1        0.0729
     43 O          65.7486   93.5474    0.5528 O.co2   1  UNL1       -0.5446
     44 O          64.5583   95.3312   -0.9140 O.co2   1  UNL1       -0.5446
@<TRIPOS>UNITY_ATOM_ATTR
43 1
charge -1
@<TRIPOS>BOND
     1    26    27    1
     2    27    25    1
     3    25    24    1
     4    24     1    1
     5     1     2   am
     6     2     3    2
     7     2     4    1
     8     4    15    1
     9    15    16    1
    10    15    18    1
    11    18    19    1
    12    19    20    1
    13    20    21    1
    14    21    22    1
    15    22    23    1
    16     4     5    1
    17     5     6   am
    18     6     7    2
    19     6     8    1
    20     8     9    1
    21     9    10    1
    22    10    11    1
    23    11    28    1
    24    28    29    1
    25    29    30   ar
    26    30    31   ar
    27    31    32   ar
    28    32    35    1
    29    35    36    1
    30    36    37   ar
    31    37    38   ar
    32    38    39   ar
    33    39    42    1
    34    42    43   ar
    35    42    44   ar
    36    39    40   ar
    37    40    41   ar
    38    32    33   ar
    39    33    34   ar
    40    11    12    1
    41    12    13    1
    42     8     1    1
    43    34    29   ar
    44    23    18    1
    45    13     8    1
    46    41    36   ar
    47    16    17    1
    48     5    14    1
@<TRIPOS>MOLECULE
*****
 44 48 0 0 0
SMALL
GASTEIGER

@<TRIPOS>ATOM
      1 N          61.8650   95.1261   -1.0029 N.am    1  UNL1       -0.2733
      2 C          62.2204   95.2137   -2.4576 C.2     1  UNL1        0.2462
      3 O          63.2807   96.1714   -2.9142 O.2     1  UNL1       -0.2730
      4 C          61.5154   94.3436   -3.4555 C.3     1  UNL1        0.1759
      5 N          60.4551   93.3859   -2.9989 N.am    1  UNL1       -0.2951
      6 C          60.0998   93.2982   -1.5443 C.2     1  UNL1        0.2390
      7 O          59.0395   92.3405   -1.0876 O.2     1  UNL1       -0.2734
      8 C          60.8048   94.1683   -0.5462 C.3     1  UNL1        0.1314
      9 C          61.5097   95.0384    0.4518 C.3     1  UNL1        0.0445
     10 C          61.1544   94.9507    1.9064 C.3     1  UNL1        0.0745
     11 N          60.0941   93.9930    2.3631 N.3     1  UNL1       -0.2688
     12 C          59.3891   93.1229    1.3651 C.3     1  UNL1        0.0745
     13 C          59.7445   93.2106   -0.0895 C.3     1  UNL1        0.0445
     14 H          59.9925   92.8148   -3.6539 H       1  UNL1        0.1499
     15 C          61.8708   94.4312   -4.9103 C.3     1  UNL1        0.1372
     16 O          61.0721   95.3111   -5.8257 O.3     1  UNL1       -0.3823
     17 H          60.3687   95.7488   -5.3211 H       1  UNL1        0.2104
     18 C          63.0247   93.6390   -5.4495 C.3     1  UNL1        0.0291
     19 C          63.2112   93.4992   -6.9313 C.3     1  UNL1        0.0025
     20 C          64.3651   92.7069   -7.4705 C.3     1  UNL1        0.0001
     21 C          65.3326   92.0545   -6.5279 C.3     1  UNL1        0.0000
     22 C          65.1461   92.1944   -5.0462 C.3     1  UNL1        0.0001
     23 C          63.9921   92.9866   -4.5070 C.3     1  UNL1        0.0025
     24 C          62.5700   95.9961   -0.0049 C.3     1  UNL1        0.0938
     25 C          64.0578   95.8965    0.1584 C.3     1  UNL1        0.0215
     26 C          64.8815   93.5557    0.9279 C.3     1  UNL1        0.0001
     27 C          64.7599   94.6044   -0.1376 C.3     1  UNL1        0.0018
     28 C          59.7387   93.9054    3.8178 C.3     1  UNL1        0.0992
     29 C          59.5345   92.5656    4.4606 C.ar    1  UNL1       -0.0059
     30 C          60.7028   91.6487    4.6709 C.ar    1  UNL1        0.0002
     31 C          60.4985   90.3088    5.3137 C.ar    1  UNL1        0.0372
     32 C          59.1259   89.8859    5.7461 C.ar    1  UNL1        0.1453
     33 C          57.9575   90.8028    5.5358 C.ar    1  UNL1        0.0372
     34 C          58.1618   92.1426    4.8930 C.ar    1  UNL1        0.0002
     35 O          58.9217   88.5462    6.3889 O.3     1  UNL1       -0.4535
     36 C          59.6856   88.1845    7.6281 C.ar    1  UNL1        0.1453
     37 C          60.0002   86.7478    7.9227 C.ar    1  UNL1        0.0375
     38 C          60.7641   86.3862    9.1620 C.ar    1  UNL1        0.0043
     39 C          61.2134   87.4613   10.1066 C.ar    1  UNL1        0.0142
     40 C          60.8988   88.8981    9.8120 C.ar    1  UNL1        0.0043
     41 C          60.1349   89.2597    8.5727 C.ar    1  UNL1        0.0375
     42 C          61.9773   87.0997   11.3458 C.2     1  UNL1        0.0729
     43 O          62.8751   88.1108   11.9952 O.co2   1  UNL1       -0.5446
     44 O          61.8435   85.7270   11.9355 O.co2   1  UNL1       -0.5446
@<TRIPOS>UNITY_ATOM_ATTR
43 1
charge -1
@<TRIPOS>BOND
     1    26    27    1
     2    27    25    1
     3    25    24    1
     4    24     1    1
     5     1     2   am
     6     2     3    2
     7     2     4    1
     8     4    15    1
     9    15    16    1
    10    15    18    1
    11    18    19    1
    12    19    20    1
    13    20    21    1
    14    21    22    1
    15    22    23    1
    16     4     5    1
    17     5     6   am
    18     6     7    2
    19     6     8    1
    20     8     9    1
    21     9    10    1
    22    10    11    1
    23    11    28    1
    24    28    29    1
    25    29    30   ar
    26    30    31   ar
    27    31    32   ar
    28    32    35    1
    29    35    36    1
    30    36    37   ar
    31    37    38   ar
    32    38    39   ar
    33    39    42    1
    34    42    43   ar
    35    42    44   ar
    36    39    40   ar
    37    40    41   ar
    38    32    33   ar
    39    33    34   ar
    40    11    12    1
    41    12    13    1
    42     8     1    1
    43    34    29   ar
    44    23    18    1
    45    13     8    1
    46    41    36   ar
    47    16    17    1
    48     5    14    1
@<TRIPOS>MOLECULE
*****
 44 48 0 0 0
SMALL
GASTEIGER

@<TRIPOS>ATOM
      1 N          59.9823   93.8939   -2.6946 N.am    1  UNL1       -0.2733
      2 C          59.3815   93.9748   -4.0667 C.2     1  UNL1        0.2462
      3 O          60.2061   94.4678   -5.2186 O.2     1  UNL1       -0.2730
      4 C          57.9561   93.5628   -4.2868 C.3     1  UNL1        0.1759
      5 N          57.1314   93.0699   -3.1349 N.am    1  UNL1       -0.2951
      6 C          57.7321   92.9889   -1.7629 C.2     1  UNL1        0.2390
      7 O          56.9075   92.4959   -0.6109 O.2     1  UNL1       -0.2734
      8 C          59.1576   93.4009   -1.5427 C.3     1  UNL1        0.1314
      9 C          60.5830   93.8129   -1.3225 C.3     1  UNL1        0.0445
     10 C          61.1837   93.7319    0.0495 C.3     1  UNL1        0.0745
     11 N          60.3590   93.2390    1.2014 N.3     1  UNL1       -0.2688
     12 C          58.9336   92.8270    0.9813 C.3     1  UNL1        0.0745
     13 C          58.3329   92.9079   -0.3908 C.3     1  UNL1        0.0445
     14 H          56.1959   92.7994   -3.2794 H       1  UNL1        0.1499
     15 C          57.3553   93.6438   -5.6589 C.3     1  UNL1        0.1372
     16 O          57.9926   92.9096   -6.8012 O.3     1  UNL1       -0.3823
     17 H          58.7773   92.4360   -6.4836 H       1  UNL1        0.2104
     18 C          56.1172   94.4588   -5.8887 C.3     1  UNL1        0.0291
     19 C          55.3832   95.0527   -4.7231 C.3     1  UNL1        0.0025
     20 C          54.1451   95.8677   -4.9528 C.3     1  UNL1        0.0001
     21 C          53.6411   96.0890   -6.3482 C.3     1  UNL1        0.0000
     22 C          54.3751   95.4952   -7.5138 C.3     1  UNL1        0.0001
     23 C          55.6132   94.6801   -7.2840 C.3     1  UNL1        0.0025
     24 C          61.4076   94.3059   -2.4745 C.3     1  UNL1        0.0938
     25 C          62.5219   93.5050   -3.0803 C.3     1  UNL1        0.0215
     26 C          64.3579   94.8411   -1.8178 C.3     1  UNL1        0.0001
     27 C          63.9365   93.9940   -2.9817 C.3     1  UNL1        0.0018
     28 C          60.9598   93.1580    2.5735 C.3     1  UNL1        0.0992
     29 C          60.3411   92.2699    3.6119 C.ar    1  UNL1       -0.0059
     30 C          61.1785   91.2446    4.3174 C.ar    1  UNL1        0.0002
     31 C          60.5597   90.3565    5.3559 C.ar    1  UNL1        0.0372
     32 C          59.1036   90.4936    5.6889 C.ar    1  UNL1        0.1453
     33 C          58.2662   91.5188    4.9834 C.ar    1  UNL1        0.0372
     34 C          58.8849   92.4069    3.9450 C.ar    1  UNL1        0.0002
     35 O          58.4849   89.6054    6.7273 O.3     1  UNL1       -0.4535
     36 C          59.3543   88.7267    7.5771 C.ar    1  UNL1        0.1453
     37 C          60.1903   89.3281    8.6676 C.ar    1  UNL1        0.0375
     38 C          61.0596   88.4494    9.5174 C.ar    1  UNL1        0.0043
     39 C          61.0929   86.9692    9.2766 C.ar    1  UNL1        0.0142
     40 C          60.2569   86.3678    8.1860 C.ar    1  UNL1        0.0043
     41 C          59.3875   87.2465    7.3362 C.ar    1  UNL1        0.0375
     42 C          61.9623   86.0905   10.1263 C.2     1  UNL1        0.0729
     43 O          62.9298   85.1433    9.4808 O.co2   1  UNL1       -0.5446
     44 O          61.8640   86.1590   11.6215 O.co2   1  UNL1       -0.5446
@<TRIPOS>UNITY_ATOM_ATTR
43 1
charge -1
@<TRIPOS>BOND
     1    26    27    1
     2    27    25    1
     3    25    24    1
     4    24     1    1
     5     1     2   am
     6     2     3    2
     7     2     4    1
     8     4    15    1
     9    15    16    1
    10    15    18    1
    11    18    19    1
    12    19    20    1
    13    20    21    1
    14    21    22    1
    15    22    23    1
    16     4     5    1
    17     5     6   am
    18     6     7    2
    19     6     8    1
    20     8     9    1
    21     9    10    1
    22    10    11    1
    23    11    28    1
    24    28    29    1
    25    29    30   ar
    26    30    31   ar
    27    31    32   ar
    28    32    35    1
    29    35    36    1
    30    36    37   ar
    31    37    38   ar
    32    38    39   ar
    33    39    42    1
    34    42    43   ar
    35    42    44   ar
    36    39    40   ar
    37    40    41   ar
    38    32    33   ar
    39    33    34   ar
    40    11    12    1
    41    12    13    1
    42     8     1    1
    43    34    29   ar
    44    23    18    1
    45    13     8    1
    46    41    36   ar
    47    16    17    1
    48     5    14    1
