@<TRIPOS>MOLECULE
*****
 32 34 0 0 0
SMALL
GASTEIGER

@<TRIPOS>ATOM
      1 C          60.3047   86.3495    8.0370 C.2     1  UNL1        0.2296
      2 O          60.4533   85.2178    7.0637 O.2     1  UNL1       -0.2745
      3 N          61.4399   86.7077    8.9497 N.am    1  UNL1       -0.2543
      4 C          61.2913   87.8394    9.9230 C.ar    1  UNL1        0.0565
      5 C          60.0438   87.9610   10.7469 C.ar    1  UNL1        0.0445
      6 C          59.8953   89.0927   11.7202 C.ar    1  UNL1        0.1415
      7 F          58.6478   89.2144   12.5442 F       1  UNL1       -0.2041
      8 C          60.9942   90.1027   11.8694 C.ar    1  UNL1        0.0328
      9 C          62.2417   89.9810   11.0455 C.ar    1  UNL1        0.0406
     10 C          62.3902   88.8494   10.0723 C.ar    1  UNL1        0.0181
     11 C          63.3406   90.9910   11.1948 C.ar    1  UNL1        0.1807
     12 N          64.1132   91.2744   12.4488 N.ar    1  UNL1       -0.1083
     13 N          65.1100   92.3535   12.1453 N.ar    1  UNL1       -0.0229
     14 N          64.9534   92.7370   10.7037 N.ar    1  UNL1       -0.0464
     15 N          63.8598   91.8949   10.1162 N.ar    1  UNL1       -0.2388
     16 H          63.5392   91.9295    9.1860 H       1  UNL1        0.1923
     17 C          59.0209   87.1230    8.0976 C.3     1  UNL1        0.0856
     18 C          58.7247   88.1669    7.0620 C.3     1  UNL1        0.0096
     19 C          59.4019   90.3377    5.8055 C.3     1  UNL1        0.0000
     20 C          59.6227   89.3601    6.9215 C.3     1  UNL1        0.0005
     21 C          62.7237   85.9342    8.8891 C.3     1  UNL1        0.1247
     22 C          62.9738   84.8186    9.8602 C.ar    1  UNL1       -0.0018
     23 C          62.3391   84.8507   11.2189 C.ar    1  UNL1        0.0005
     24 C          62.5892   83.7351   12.1899 C.ar    1  UNL1        0.0369
     25 C          63.4739   82.5875   11.8022 C.ar    1  UNL1        0.1468
     26 C          64.1086   82.5555   10.4435 C.ar    1  UNL1        0.0369
     27 C          63.8585   83.6710    9.4725 C.ar    1  UNL1        0.0005
     28 O          63.7240   81.4719   12.7733 O.3     1  UNL1       -0.4045
     29 C          62.5882   80.6030   13.2260 C.3     1  UNL1        0.5753
     30 F          61.4524   79.7340   13.6789 F       1  UNL1       -0.1328
     31 F          62.4752   81.4076   14.4869 F       1  UNL1       -0.1328
     32 F          62.7013   79.7983   11.9652 F       1  UNL1       -0.1328
@<TRIPOS>BOND
     1    19    20    1
     2    20    18    1
     3    18    17    1
     4    17     1    1
     5     1     2    2
     6     1     3   am
     7     3    21    1
     8    21    22    1
     9    22    23   ar
    10    23    24   ar
    11    24    25   ar
    12    25    28    1
    13    28    29    1
    14    29    30    1
    15    29    31    1
    16    29    32    1
    17    25    26   ar
    18    26    27   ar
    19     3     4    1
    20     4     5   ar
    21     5     6   ar
    22     6     7    1
    23     6     8   ar
    24     8     9   ar
    25     9    11    1
    26    11    12   ar
    27    12    13   ar
    28    13    14   ar
    29    14    15   ar
    30     9    10   ar
    31    27    22   ar
    32    10     4   ar
    33    15    11   ar
    34    15    16    1
@<TRIPOS>MOLECULE
*****
 32 34 0 0 0
SMALL
GASTEIGER

@<TRIPOS>ATOM
      1 C          60.3624   89.1010    9.6513 C.2     1  UNL1        0.2296
      2 O          59.7910   90.4826    9.7729 O.2     1  UNL1       -0.2745
      3 N          61.3170   88.5901   10.6893 N.am    1  UNL1       -0.2543
      4 C          61.8884   87.2085   10.5676 C.ar    1  UNL1        0.0565
      5 C          62.2920   86.6795    9.2233 C.ar    1  UNL1        0.0445
      6 C          62.8634   85.2980    9.1017 C.ar    1  UNL1        0.1415
      7 F          63.2671   84.7690    7.7573 F       1  UNL1       -0.2041
      8 C          63.0310   84.4454   10.3243 C.ar    1  UNL1        0.0328
      9 C          62.6274   84.9743   11.6687 C.ar    1  UNL1        0.0406
     10 C          62.0561   86.3558   11.7903 C.ar    1  UNL1        0.0181
     11 C          62.7951   84.1217   12.8913 C.ar    1  UNL1        0.1807
     12 N          63.2810   82.7028   12.9169 N.ar    1  UNL1       -0.1083
     13 N          63.2925   82.2424   14.3445 N.ar    1  UNL1       -0.0229
     14 N          62.8137   83.3768   15.2012 N.ar    1  UNL1       -0.0464
     15 N          62.5063   84.5382   14.3031 N.ar    1  UNL1       -0.2388
     16 H          62.1734   85.4192   14.5899 H       1  UNL1        0.1923
     17 C          59.9791   88.2303    8.4915 C.3     1  UNL1        0.0856
     18 C          59.0694   88.7612    7.4235 C.3     1  UNL1        0.0096
     19 C          58.7102   90.5896    5.6131 C.3     1  UNL1        0.0000
     20 C          59.6179   89.6431    6.3413 C.3     1  UNL1        0.0005
     21 C          61.7003   89.4607   11.8491 C.3     1  UNL1        0.1247
     22 C          62.8575   90.4073   11.7261 C.ar    1  UNL1       -0.0018
     23 C          63.7019   90.7195   12.9259 C.ar    1  UNL1        0.0005
     24 C          64.8590   91.6660   12.8029 C.ar    1  UNL1        0.0369
     25 C          65.1717   92.3003   11.4801 C.ar    1  UNL1        0.1468
     26 C          64.3273   91.9881   10.2803 C.ar    1  UNL1        0.0369
     27 C          63.1702   91.0416   10.4033 C.ar    1  UNL1        0.0005
     28 O          66.3289   93.2469   11.3571 O.3     1  UNL1       -0.4045
     29 C          67.1657   93.2507   10.1123 C.3     1  UNL1        0.5753
     30 F          68.0025   93.2546    8.8673 F       1  UNL1       -0.1328
     31 F          66.5320   94.5431    9.6902 F       1  UNL1       -0.1328
     32 F          67.7994   91.9584   10.5343 F       1  UNL1       -0.1328
@<TRIPOS>BOND
     1    19    20    1
     2    20    18    1
     3    18    17    1
     4    17     1    1
     5     1     2    2
     6     1     3   am
     7     3    21    1
     8    21    22    1
     9    22    23   ar
    10    23    24   ar
    11    24    25   ar
    12    25    28    1
    13    28    29    1
    14    29    30    1
    15    29    31    1
    16    29    32    1
    17    25    26   ar
    18    26    27   ar
    19     3     4    1
    20     4     5   ar
    21     5     6   ar
    22     6     7    1
    23     6     8   ar
    24     8     9   ar
    25     9    11    1
    26    11    12   ar
    27    12    13   ar
    28    13    14   ar
    29    14    15   ar
    30     9    10   ar
    31    27    22   ar
    32    10     4   ar
    33    15    11   ar
    34    15    16    1
@<TRIPOS>MOLECULE
*****
 32 34 0 0 0
SMALL
GASTEIGER

@<TRIPOS>ATOM
      1 C          60.3612   89.1079    9.5683 C.2     1  UNL1        0.2296
      2 O          59.7489   90.4708    9.7013 O.2     1  UNL1       -0.2745
      3 N          61.2155   88.5586   10.6721 N.am    1  UNL1       -0.2543
      4 C          61.8278   87.1957   10.5390 C.ar    1  UNL1        0.0565
      5 C          62.2355   86.6852    9.1888 C.ar    1  UNL1        0.0445
      6 C          62.8478   85.3223    9.0558 C.ar    1  UNL1        0.1415
      7 F          63.2555   84.8117    7.7056 F       1  UNL1       -0.2041
      8 C          63.0523   84.4700   10.2731 C.ar    1  UNL1        0.0328
      9 C          62.6446   84.9805   11.6233 C.ar    1  UNL1        0.0406
     10 C          62.0324   86.3433   11.7563 C.ar    1  UNL1        0.0181
     11 C          62.8492   84.1281   12.8405 C.ar    1  UNL1        0.1807
     12 N          62.4010   84.4581   14.2334 N.ar    1  UNL1       -0.1083
     13 N          62.8127   83.3301   15.1324 N.ar    1  UNL1       -0.0229
     14 N          63.5154   82.3029   14.2950 N.ar    1  UNL1       -0.0464
     15 N          63.5379   82.7961   12.8786 N.ar    1  UNL1       -0.2388
     16 H          63.9351   82.3278   12.1090 H       1  UNL1        0.1923
     17 C          60.1191   88.2944    8.3315 C.3     1  UNL1        0.0856
     18 C          59.1419   88.7723    7.2987 C.3     1  UNL1        0.0096
     19 C          58.5781   90.6538    5.5982 C.3     1  UNL1        0.0000
     20 C          59.5808   89.7440    6.2437 C.3     1  UNL1        0.0005
     21 C          61.4576   89.3721   11.9088 C.3     1  UNL1        0.1247
     22 C          62.6736   90.2449   12.0064 C.ar    1  UNL1       -0.0018
     23 C          63.4019   90.3733   13.3114 C.ar    1  UNL1        0.0005
     24 C          64.6179   91.2460   13.4089 C.ar    1  UNL1        0.0369
     25 C          65.1057   91.9904   12.2014 C.ar    1  UNL1        0.1468
     26 C          64.3774   91.8619   10.8964 C.ar    1  UNL1        0.0369
     27 C          63.1614   90.9892   10.7989 C.ar    1  UNL1        0.0005
     28 O          66.3218   92.8632   12.2990 O.3     1  UNL1       -0.4045
     29 C          67.1958   92.7982   13.5163 C.3     1  UNL1        0.5753
     30 F          68.0700   92.7332   14.7336 F       1  UNL1       -0.1328
     31 F          67.9424   91.6427   12.9185 F       1  UNL1       -0.1328
     32 F          66.4492   93.9537   14.1140 F       1  UNL1       -0.1328
@<TRIPOS>BOND
     1    19    20    1
     2    20    18    1
     3    18    17    1
     4    17     1    1
     5     1     2    2
     6     1     3   am
     7     3    21    1
     8    21    22    1
     9    22    23   ar
    10    23    24   ar
    11    24    25   ar
    12    25    28    1
    13    28    29    1
    14    29    30    1
    15    29    31    1
    16    29    32    1
    17    25    26   ar
    18    26    27   ar
    19     3     4    1
    20     4     5   ar
    21     5     6   ar
    22     6     7    1
    23     6     8   ar
    24     8     9   ar
    25     9    11    1
    26    11    12   ar
    27    12    13   ar
    28    13    14   ar
    29    14    15   ar
    30     9    10   ar
    31    27    22   ar
    32    10     4   ar
    33    15    11   ar
    34    15    16    1
@<TRIPOS>MOLECULE
*****
 32 34 0 0 0
SMALL
GASTEIGER

@<TRIPOS>ATOM
      1 C          60.6578   86.8531    8.5447 C.2     1  UNL1        0.2296
      2 O          60.2837   85.6855    7.6806 O.2     1  UNL1       -0.2745
      3 N          62.0123   86.9074    9.1869 N.am    1  UNL1       -0.2543
      4 C          62.3863   88.0751   10.0511 C.ar    1  UNL1        0.0565
      5 C          62.5546   89.4354    9.4420 C.ar    1  UNL1        0.0445
      6 C          62.9286   90.6030   10.3061 C.ar    1  UNL1        0.1415
      7 F          63.0969   91.9635    9.6970 F       1  UNL1       -0.2041
      8 C          63.1343   90.4102   11.7794 C.ar    1  UNL1        0.0328
      9 C          62.9660   89.0499   12.3885 C.ar    1  UNL1        0.0406
     10 C          62.5920   87.8823   11.5244 C.ar    1  UNL1        0.0181
     11 C          63.1717   88.8571   13.8618 C.ar    1  UNL1        0.1807
     12 N          62.7699   89.8179   14.9413 N.ar    1  UNL1       -0.1083
     13 N          63.1652   89.2243   16.2609 N.ar    1  UNL1       -0.0229
     14 N          63.8114   87.8966   15.9970 N.ar    1  UNL1       -0.0464
     15 N          63.8155   87.6697   14.5142 N.ar    1  UNL1       -0.2388
     16 H          64.1771   86.8801   14.0507 H       1  UNL1        0.1923
     17 C          59.6773   87.9664    8.7667 C.3     1  UNL1        0.0856
     18 C          58.9372   88.5571    7.6034 C.3     1  UNL1        0.0096
     19 C          58.8275   90.3351    5.7122 C.3     1  UNL1        0.0000
     20 C          59.6276   89.5243    6.6881 C.3     1  UNL1        0.0005
     21 C          62.9927   85.7941    8.9650 C.3     1  UNL1        0.1247
     22 C          63.1243   84.6971    9.9796 C.ar    1  UNL1       -0.0018
     23 C          64.0171   83.5238    9.7041 C.ar    1  UNL1        0.0005
     24 C          64.1486   82.4269   10.7187 C.ar    1  UNL1        0.0369
     25 C          63.3873   82.5034   12.0088 C.ar    1  UNL1        0.1468
     26 C          62.4945   83.6767   12.2844 C.ar    1  UNL1        0.0369
     27 C          62.3629   84.7736   11.2698 C.ar    1  UNL1        0.0005
     28 O          63.5189   81.4064   13.0235 O.3     1  UNL1       -0.4045
     29 C          62.3144   80.6076   13.4248 C.3     1  UNL1        0.5753
     30 F          61.1099   79.8087   13.8262 F       1  UNL1       -0.1328
     31 F          62.1100   81.5092   14.6060 F       1  UNL1       -0.1328
     32 F          62.5188   79.7059   12.2436 F       1  UNL1       -0.1328
@<TRIPOS>BOND
     1    19    20    1
     2    20    18    1
     3    18    17    1
     4    17     1    1
     5     1     2    2
     6     1     3   am
     7     3    21    1
     8    21    22    1
     9    22    23   ar
    10    23    24   ar
    11    24    25   ar
    12    25    28    1
    13    28    29    1
    14    29    30    1
    15    29    31    1
    16    29    32    1
    17    25    26   ar
    18    26    27   ar
    19     3     4    1
    20     4     5   ar
    21     5     6   ar
    22     6     7    1
    23     6     8   ar
    24     8     9   ar
    25     9    11    1
    26    11    12   ar
    27    12    13   ar
    28    13    14   ar
    29    14    15   ar
    30     9    10   ar
    31    27    22   ar
    32    10     4   ar
    33    15    11   ar
    34    15    16    1
@<TRIPOS>MOLECULE
*****
 32 34 0 0 0
SMALL
GASTEIGER

@<TRIPOS>ATOM
      1 C          65.4349   92.3040   15.6916 C.2     1  UNL1        0.2296
      2 O          65.4572   92.2428   17.1902 O.2     1  UNL1       -0.2745
      3 N          64.4111   91.5212   14.9241 N.am    1  UNL1       -0.2543
      4 C          64.3889   91.5825   13.4255 C.ar    1  UNL1        0.0565
      5 C          63.2658   90.9418   12.6652 C.ar    1  UNL1        0.0445
      6 C          63.2436   91.0031   11.1667 C.ar    1  UNL1        0.1415
      7 F          62.1204   90.3625   10.4063 F       1  UNL1       -0.2041
      8 C          64.3446   91.7050   10.4284 C.ar    1  UNL1        0.0328
      9 C          65.4678   92.3456   11.1886 C.ar    1  UNL1        0.0406
     10 C          65.4900   92.2844   12.6872 C.ar    1  UNL1        0.0181
     11 C          66.5688   93.0475   10.4503 C.ar    1  UNL1        0.1807
     12 N          68.0262   92.6960   10.4981 N.ar    1  UNL1       -0.1083
     13 N          68.7639   93.6554    9.6119 N.ar    1  UNL1       -0.0229
     14 N          67.7624   94.6000    9.0164 N.ar    1  UNL1       -0.0464
     15 N          66.4058   94.2243    9.5345 N.ar    1  UNL1       -0.2388
     16 H          65.5573   94.6715    9.3125 H       1  UNL1        0.1923
     17 C          66.4365   93.1481   14.9605 C.3     1  UNL1        0.0856
     18 C          67.7697   93.4387   15.5836 C.3     1  UNL1        0.0096
     19 C          68.9799   91.8828   13.8912 C.3     1  UNL1        0.0000
     20 C          68.9733   92.6354   15.1887 C.3     1  UNL1        0.0005
     21 C          63.4096   90.6772   15.6552 C.3     1  UNL1        0.1247
     22 C          63.5844   89.1886   15.7149 C.ar    1  UNL1       -0.0018
     23 C          64.3357   88.4774   14.6287 C.ar    1  UNL1        0.0005
     24 C          64.5104   86.9889   14.6885 C.ar    1  UNL1        0.0369
     25 C          63.9339   86.2115   15.8344 C.ar    1  UNL1        0.1468
     26 C          63.1827   86.9226   16.9206 C.ar    1  UNL1        0.0369
     27 C          63.0079   88.4111   16.8609 C.ar    1  UNL1        0.0005
     28 O          64.1088   84.7228   15.8942 O.3     1  UNL1       -0.4045
     29 C          63.4922   83.8523   14.8397 C.3     1  UNL1        0.5753
     30 F          62.8756   82.9818   13.7851 F       1  UNL1       -0.1328
     31 F          64.8330   83.6942   14.1862 F       1  UNL1       -0.1328
     32 F          62.1513   84.0105   15.4931 F       1  UNL1       -0.1328
@<TRIPOS>BOND
     1    19    20    1
     2    20    18    1
     3    18    17    1
     4    17     1    1
     5     1     2    2
     6     1     3   am
     7     3    21    1
     8    21    22    1
     9    22    23   ar
    10    23    24   ar
    11    24    25   ar
    12    25    28    1
    13    28    29    1
    14    29    30    1
    15    29    31    1
    16    29    32    1
    17    25    26   ar
    18    26    27   ar
    19     3     4    1
    20     4     5   ar
    21     5     6   ar
    22     6     7    1
    23     6     8   ar
    24     8     9   ar
    25     9    11    1
    26    11    12   ar
    27    12    13   ar
    28    13    14   ar
    29    14    15   ar
    30     9    10   ar
    31    27    22   ar
    32    10     4   ar
    33    15    11   ar
    34    15    16    1
@<TRIPOS>MOLECULE
*****
 32 34 0 0 0
SMALL
GASTEIGER

@<TRIPOS>ATOM
      1 C          62.9044   90.5025   13.1402 C.2     1  UNL1        0.2296
      2 O          61.6767   89.6437   13.2122 O.2     1  UNL1       -0.2745
      3 N          63.8184   90.6051   14.3251 N.am    1  UNL1       -0.2543
      4 C          65.0462   91.4640   14.2530 C.ar    1  UNL1        0.0565
      5 C          65.6814   91.9716   15.5135 C.ar    1  UNL1        0.0445
      6 C          66.9091   92.8304   15.4414 C.ar    1  UNL1        0.1415
      7 F          67.5444   93.3380   16.7018 F       1  UNL1       -0.2041
      8 C          67.5015   93.1817   14.1088 C.ar    1  UNL1        0.0328
      9 C          66.8662   92.6741   12.8484 C.ar    1  UNL1        0.0406
     10 C          65.6385   91.8153   12.9205 C.ar    1  UNL1        0.0181
     11 C          67.4586   93.0254   11.5158 C.ar    1  UNL1        0.1807
     12 N          68.4164   92.1827   10.7270 N.ar    1  UNL1       -0.1083
     13 N          68.7469   92.9175    9.4617 N.ar    1  UNL1       -0.0229
     14 N          67.9933   94.2144    9.4686 N.ar    1  UNL1       -0.0464
     15 N          67.1971   94.2811   10.7381 N.ar    1  UNL1       -0.2388
     16 H          66.6065   95.0194   11.0126 H       1  UNL1        0.1923
     17 C          63.2181   91.2587   11.8832 C.3     1  UNL1        0.0856
     18 C          63.2641   90.5401   10.5674 C.3     1  UNL1        0.0096
     19 C          61.8875   88.4484    9.8748 C.3     1  UNL1        0.0000
     20 C          62.0141   89.9380    9.9975 C.3     1  UNL1        0.0005
     21 C          63.5048   89.8490   15.5820 C.3     1  UNL1        0.1247
     22 C          63.6366   88.3550   15.6112 C.ar    1  UNL1       -0.0018
     23 C          64.3132   87.6395   14.4798 C.ar    1  UNL1        0.0005
     24 C          64.4449   86.1456   14.5090 C.ar    1  UNL1        0.0369
     25 C          63.8999   85.3672   15.6696 C.ar    1  UNL1        0.1468
     26 C          63.2232   86.0827   16.8010 C.ar    1  UNL1        0.0369
     27 C          63.0915   87.5766   16.7718 C.ar    1  UNL1        0.0005
     28 O          64.0316   83.8733   15.6988 O.3     1  UNL1       -0.4045
     29 C          63.3269   83.0380   14.6714 C.3     1  UNL1        0.5753
     30 F          62.6222   82.2027   13.6438 F       1  UNL1       -0.1328
     31 F          64.6031   82.9200   13.8920 F       1  UNL1       -0.1328
     32 F          62.0508   83.1561   15.4507 F       1  UNL1       -0.1328
@<TRIPOS>BOND
     1    19    20    1
     2    20    18    1
     3    18    17    1
     4    17     1    1
     5     1     2    2
     6     1     3   am
     7     3    21    1
     8    21    22    1
     9    22    23   ar
    10    23    24   ar
    11    24    25   ar
    12    25    28    1
    13    28    29    1
    14    29    30    1
    15    29    31    1
    16    29    32    1
    17    25    26   ar
    18    26    27   ar
    19     3     4    1
    20     4     5   ar
    21     5     6   ar
    22     6     7    1
    23     6     8   ar
    24     8     9   ar
    25     9    11    1
    26    11    12   ar
    27    12    13   ar
    28    13    14   ar
    29    14    15   ar
    30     9    10   ar
    31    27    22   ar
    32    10     4   ar
    33    15    11   ar
    34    15    16    1
@<TRIPOS>MOLECULE
*****
 32 34 0 0 0
SMALL
GASTEIGER

@<TRIPOS>ATOM
      1 C          65.3435   91.6009   13.4541 C.2     1  UNL1        0.2296
      2 O          65.5209   92.8366   12.6227 O.2     1  UNL1       -0.2745
      3 N          64.0778   90.8026   13.3506 N.am    1  UNL1       -0.2543
      4 C          63.9004   89.5668   14.1821 C.ar    1  UNL1        0.0565
      5 C          63.6122   89.6850   15.6494 C.ar    1  UNL1        0.0445
      6 C          63.4349   88.4493   16.4809 C.ar    1  UNL1        0.1415
      7 F          63.1467   88.5675   17.9482 F       1  UNL1       -0.2041
      8 C          63.5456   87.0952   15.8451 C.ar    1  UNL1        0.0328
      9 C          63.8338   86.9769   14.3778 C.ar    1  UNL1        0.0406
     10 C          64.0112   88.2127   13.5463 C.ar    1  UNL1        0.0181
     11 C          63.9446   85.6229   13.7420 C.ar    1  UNL1        0.1807
     12 N          63.1621   85.1383   12.5575 N.ar    1  UNL1       -0.1083
     13 N          63.5912   83.7316   12.2625 N.ar    1  UNL1       -0.0229
     14 N          64.6389   83.3467   13.2646 N.ar    1  UNL1       -0.0464
     15 N          64.8573   84.5156   14.1790 N.ar    1  UNL1       -0.2388
     16 H          65.4888   84.5500   14.9335 H       1  UNL1        0.1923
     17 C          66.4318   91.1634   14.3892 C.3     1  UNL1        0.0856
     18 C          67.6859   91.9768   14.5132 C.3     1  UNL1        0.0096
     19 C          68.9174   93.7303   15.9825 C.3     1  UNL1        0.0000
     20 C          68.1412   92.4525   15.8610 C.3     1  UNL1        0.0005
     21 C          62.9895   91.2400   12.4156 C.3     1  UNL1        0.1247
     22 C          62.1711   90.2162   11.6860 C.ar    1  UNL1       -0.0018
     23 C          62.7248   89.5457   10.4638 C.ar    1  UNL1        0.0005
     24 C          61.9064   88.5220    9.7343 C.ar    1  UNL1        0.0369
     25 C          60.5343   88.1689   10.2269 C.ar    1  UNL1        0.1468
     26 C          59.9807   88.8394   11.4491 C.ar    1  UNL1        0.0369
     27 C          60.7990   89.8631   12.1786 C.ar    1  UNL1        0.0005
     28 O          59.7159   87.1452    9.4973 O.3     1  UNL1       -0.4045
     29 C          60.3222   86.3666    8.3676 C.3     1  UNL1        0.5753
     30 F          60.9286   85.5881    7.2378 F       1  UNL1       -0.1328
     31 F          59.6600   87.2822    7.3812 F       1  UNL1       -0.1328
     32 F          60.9845   85.4510    9.3540 F       1  UNL1       -0.1328
@<TRIPOS>BOND
     1    19    20    1
     2    20    18    1
     3    18    17    1
     4    17     1    1
     5     1     2    2
     6     1     3   am
     7     3    21    1
     8    21    22    1
     9    22    23   ar
    10    23    24   ar
    11    24    25   ar
    12    25    28    1
    13    28    29    1
    14    29    30    1
    15    29    31    1
    16    29    32    1
    17    25    26   ar
    18    26    27   ar
    19     3     4    1
    20     4     5   ar
    21     5     6   ar
    22     6     7    1
    23     6     8   ar
    24     8     9   ar
    25     9    11    1
    26    11    12   ar
    27    12    13   ar
    28    13    14   ar
    29    14    15   ar
    30     9    10   ar
    31    27    22   ar
    32    10     4   ar
    33    15    11   ar
    34    15    16    1
@<TRIPOS>MOLECULE
*****
 32 34 0 0 0
SMALL
GASTEIGER

@<TRIPOS>ATOM
      1 C          62.0213   86.7520    9.7743 C.2     1  UNL1        0.2296
      2 O          61.4054   87.7034    8.7918 O.2     1  UNL1       -0.2745
      3 N          62.1731   87.1524   11.2119 N.am    1  UNL1       -0.2543
      4 C          62.7891   86.2009   12.1944 C.ar    1  UNL1        0.0565
      5 C          63.7086   86.7160   13.2617 C.ar    1  UNL1        0.0445
      6 C          64.3246   85.7645   14.2442 C.ar    1  UNL1        0.1415
      7 F          65.2442   86.2795   15.3115 F       1  UNL1       -0.2041
      8 C          64.0210   84.2980   14.1593 C.ar    1  UNL1        0.0328
      9 C          63.1014   83.7830   13.0920 C.ar    1  UNL1        0.0406
     10 C          62.4855   84.7344   12.1096 C.ar    1  UNL1        0.0181
     11 C          62.7978   82.3165   13.0072 C.ar    1  UNL1        0.1807
     12 N          62.1557   81.4856   14.0783 N.ar    1  UNL1       -0.1083
     13 N          62.0440   80.0790   13.5695 N.ar    1  UNL1       -0.0229
     14 N          62.6172   80.0404   12.1839 N.ar    1  UNL1       -0.0464
     15 N          63.0831   81.4233   11.8364 N.ar    1  UNL1       -0.2388
     16 H          63.5025   81.6967   10.9887 H       1  UNL1        0.1923
     17 C          62.4855   85.4001    9.3192 C.3     1  UNL1        0.0856
     18 C          62.8532   85.1780    7.8821 C.3     1  UNL1        0.0096
     19 C          62.1356   84.2310    5.5716 C.3     1  UNL1        0.0000
     20 C          61.7834   84.8962    6.8691 C.3     1  UNL1        0.0005
     21 C          61.7089   88.5042   11.6669 C.3     1  UNL1        0.1247
     22 C          62.6623   89.6624   11.6712 C.ar    1  UNL1       -0.0018
     23 C          62.8709   90.4666   10.4224 C.ar    1  UNL1        0.0005
     24 C          63.8242   91.6247   10.4268 C.ar    1  UNL1        0.0369
     25 C          64.5689   91.9785   11.6799 C.ar    1  UNL1        0.1468
     26 C          64.3602   91.1742   12.9287 C.ar    1  UNL1        0.0369
     27 C          63.4069   90.0162   12.9244 C.ar    1  UNL1        0.0005
     28 O          65.5222   93.1366   11.6842 O.3     1  UNL1       -0.4045
     29 C          66.1367   93.6070   10.3993 C.3     1  UNL1        0.5753
     30 F          66.7513   94.0773    9.1142 F       1  UNL1       -0.1328
     31 F          67.0247   92.3982   10.3815 F       1  UNL1       -0.1328
     32 F          65.2488   94.8157   10.4170 F       1  UNL1       -0.1328
@<TRIPOS>BOND
     1    19    20    1
     2    20    18    1
     3    18    17    1
     4    17     1    1
     5     1     2    2
     6     1     3   am
     7     3    21    1
     8    21    22    1
     9    22    23   ar
    10    23    24   ar
    11    24    25   ar
    12    25    28    1
    13    28    29    1
    14    29    30    1
    15    29    31    1
    16    29    32    1
    17    25    26   ar
    18    26    27   ar
    19     3     4    1
    20     4     5   ar
    21     5     6   ar
    22     6     7    1
    23     6     8   ar
    24     8     9   ar
    25     9    11    1
    26    11    12   ar
    27    12    13   ar
    28    13    14   ar
    29    14    15   ar
    30     9    10   ar
    31    27    22   ar
    32    10     4   ar
    33    15    11   ar
    34    15    16    1
@<TRIPOS>MOLECULE
*****
 32 34 0 0 0
SMALL
GASTEIGER

@<TRIPOS>ATOM
      1 C          60.2651   89.1342    9.7196 C.2     1  UNL1        0.2296
      2 O          59.4172   88.2015    8.9066 O.2     1  UNL1       -0.2745
      3 N          61.7255   88.8483    9.9082 N.am    1  UNL1       -0.2543
      4 C          62.5734   89.7811   10.7213 C.ar    1  UNL1        0.0565
      5 C          63.4360   90.7997   10.0368 C.ar    1  UNL1        0.0445
      6 C          64.2838   91.7324   10.8498 C.ar    1  UNL1        0.1415
      7 F          65.1464   92.7511   10.1654 F       1  UNL1       -0.2041
      8 C          64.2692   91.6466   12.3473 C.ar    1  UNL1        0.0328
      9 C          63.4067   90.6280   13.0318 C.ar    1  UNL1        0.0406
     10 C          62.5588   89.6953   12.2187 C.ar    1  UNL1        0.0181
     11 C          63.3921   90.5422   14.5292 C.ar    1  UNL1        0.1807
     12 N          63.8716   91.6006   15.4778 N.ar    1  UNL1       -0.1083
     13 N          63.6712   91.0954   16.8759 N.ar    1  UNL1       -0.0229
     14 N          63.0679   89.7247   16.7914 N.ar    1  UNL1       -0.0464
     15 N          62.8953   89.3828   15.3411 N.ar    1  UNL1       -0.2388
     16 H          62.5217   88.5446   14.9847 H       1  UNL1        0.1923
     17 C          59.6527   90.3529   10.3440 C.3     1  UNL1        0.0856
     18 C          59.2724   90.3415   11.7949 C.3     1  UNL1        0.0096
     19 C          57.8380   88.6672   13.1694 C.3     1  UNL1        0.0000
     20 C          59.1411   89.0382   12.5256 C.3     1  UNL1        0.0005
     21 C          62.3379   87.6297    9.2839 C.3     1  UNL1        0.1247
     22 C          62.5074   86.3775   10.0923 C.ar    1  UNL1       -0.0018
     23 C          62.1556   86.3728   11.5505 C.ar    1  UNL1        0.0005
     24 C          62.3251   85.1206   12.3588 C.ar    1  UNL1        0.0369
     25 C          62.8464   83.8733   11.7090 C.ar    1  UNL1        0.1468
     26 C          63.1982   83.8780   10.2508 C.ar    1  UNL1        0.0369
     27 C          63.0287   85.1301    9.4425 C.ar    1  UNL1        0.0005
     28 O          63.0159   82.6211   12.5174 O.3     1  UNL1       -0.4045
     29 C          63.5325   82.7002   13.9233 C.3     1  UNL1        0.5753
     30 F          64.0492   82.7794   15.3294 F       1  UNL1       -0.1328
     31 F          64.8157   83.2907   13.4186 F       1  UNL1       -0.1328
     32 F          62.2493   82.1098   14.4281 F       1  UNL1       -0.1328
@<TRIPOS>BOND
     1    19    20    1
     2    20    18    1
     3    18    17    1
     4    17     1    1
     5     1     2    2
     6     1     3   am
     7     3    21    1
     8    21    22    1
     9    22    23   ar
    10    23    24   ar
    11    24    25   ar
    12    25    28    1
    13    28    29    1
    14    29    30    1
    15    29    31    1
    16    29    32    1
    17    25    26   ar
    18    26    27   ar
    19     3     4    1
    20     4     5   ar
    21     5     6   ar
    22     6     7    1
    23     6     8   ar
    24     8     9   ar
    25     9    11    1
    26    11    12   ar
    27    12    13   ar
    28    13    14   ar
    29    14    15   ar
    30     9    10   ar
    31    27    22   ar
    32    10     4   ar
    33    15    11   ar
    34    15    16    1
