@<TRIPOS>MOLECULE
*****
 30 34 0 0 0
SMALL
GASTEIGER

@<TRIPOS>ATOM
      1 C          63.6460   82.8387   13.8443 C.3     1  UNL1        0.0294
      2 C          63.4637   82.6536   12.3670 C.3     1  UNL1        0.0666
      3 S          63.7397   83.7910   11.4289 S.3     1  UNL1       -0.0756
      4 C          61.2616   86.5246   10.2239 C.ar    1  UNL1        0.2029
      5 N          61.0446   86.5702   11.7075 N.ar    1  UNL1       -0.1250
      6 N          61.9465   85.5517   12.3394 N.ar    1  UNL1       -0.1220
      7 C          62.7209   84.8767   11.2464 C.ar    1  UNL1        0.1933
      8 N          62.2977   85.4779    9.9390 N.ar    1  UNL1       -0.2860
      9 C          62.8190   85.0991    8.5845 C.3     1  UNL1        0.1341
     10 C          61.5080   89.7664    9.9411 C.3     1  UNL1        0.0556
     11 C          60.6782   88.8662    9.0743 C.ar    1  UNL1        0.1001
     12 N          59.8159   89.2981    7.9254 N.ar    1  UNL1       -0.2085
     13 C          59.1698   88.0750    7.3454 C.ar    1  UNL1        0.2849
     14 O          59.6327   86.8871    8.1358 O.2     1  UNL1       -0.4283
     15 C          60.5649   87.3762    9.2043 C.ar    1  UNL1        0.1964
     16 C          64.7076   83.7650   14.3589 C.3     1  UNL1        0.0731
     17 N          64.3280   85.1048   14.9165 N.3     1  UNL1       -0.2712
     18 C          63.6266   85.3510   16.2193 C.3     1  UNL1        0.0738
     19 C          63.4483   86.8319   16.3771 C.3     1  UNL1        0.0372
     20 C          62.9046   87.8994   17.2798 C.3     1  UNL1        0.0245
     21 C          63.1597   89.2283   16.6324 C.3     1  UNL1        0.0909
     22 N          63.8612   88.9820   15.3296 N.pl3   1  UNL1       -0.3077
     23 C          64.0395   87.5011   15.1718 C.3     1  UNL1        0.0901
     24 C          64.5832   86.4336   14.2691 C.3     1  UNL1        0.0921
     25 C          64.3062   90.0324   14.3556 C.ar    1  UNL1        0.0478
     26 C          63.5746   90.2106   13.0583 C.ar    1  UNL1        0.0145
     27 C          64.0196   91.2609   12.0843 C.ar    1  UNL1        0.0013
     28 C          65.1963   92.1331   12.4075 C.ar    1  UNL1        0.0001
     29 C          65.9281   91.9550   13.7048 C.ar    1  UNL1        0.0013
     30 C          65.4830   90.9047   14.6788 C.ar    1  UNL1        0.0145
@<TRIPOS>BOND
     1    10    11    1
     2    11    12   ar
     3    12    13   ar
     4    13    14   ar
     5    14    15   ar
     6    15     4    1
     7     4     5   ar
     8     5     6   ar
     9     6     7   ar
    10     7     3    1
    11     3     2    1
    12     2     1    1
    13     1    16    1
    14    16    17    1
    15    17    18    1
    16    18    19    1
    17    19    20    1
    18    20    21    1
    19    21    22    1
    20    22    25    1
    21    25    26   ar
    22    26    27   ar
    23    27    28   ar
    24    28    29   ar
    25    29    30   ar
    26    22    23    1
    27    23    24    1
    28     7     8   ar
    29     8     9    1
    30    15    11   ar
    31     8     4   ar
    32    24    17    1
    33    23    19    1
    34    30    25   ar
@<TRIPOS>MOLECULE
*****
 30 34 0 0 0
SMALL
GASTEIGER

@<TRIPOS>ATOM
      1 C          60.6486   90.1330   11.2349 C.3     1  UNL1        0.0294
      2 C          61.3705   90.1104   12.5496 C.3     1  UNL1        0.0666
      3 S          62.8331   89.7809   12.5966 S.3     1  UNL1       -0.0756
      4 C          65.3382   92.6981   12.0679 C.ar    1  UNL1        0.2029
      5 N          65.4801   92.4576   13.5417 N.ar    1  UNL1       -0.1250
      6 N          64.5590   91.3355   13.9191 N.ar    1  UNL1       -0.1220
      7 C          63.8477   90.8825   12.6786 C.ar    1  UNL1        0.1933
      8 N          64.3293   91.7246   11.5345 N.ar    1  UNL1       -0.2860
      9 C          63.8807   91.6129   10.1075 C.3     1  UNL1        0.1341
     10 C          67.8098   92.1288   10.0144 C.3     1  UNL1        0.0556
     11 C          67.2117   93.4691   10.3242 C.ar    1  UNL1        0.1001
     12 N          67.6447   94.7830    9.7444 N.ar    1  UNL1       -0.2085
     13 C          66.7762   95.8568   10.3299 C.ar    1  UNL1        0.2849
     14 O          65.8065   95.2064   11.2716 O.2     1  UNL1       -0.4283
     15 C          66.0757   93.7308   11.2680 C.ar    1  UNL1        0.1964
     16 C          60.0259   88.8778   10.6994 C.3     1  UNL1        0.0731
     17 N          60.8854   87.6894   10.3848 N.3     1  UNL1       -0.2712
     18 C          61.6358   87.4575    9.1069 C.3     1  UNL1        0.0738
     19 C          62.3595   86.1490    9.2252 C.3     1  UNL1        0.0372
     20 C          63.2705   85.1970    8.5085 C.3     1  UNL1        0.0245
     21 C          63.5305   84.0317    9.4166 C.3     1  UNL1        0.0909
     22 N          62.7800   84.2636   10.6946 N.pl3   1  UNL1       -0.3077
     23 C          62.0563   85.5721   10.5763 C.3     1  UNL1        0.0901
     24 C          61.1453   86.5241   11.2929 C.3     1  UNL1        0.0921
     25 C          62.7573   83.3477   11.8823 C.ar    1  UNL1        0.0478
     26 C          62.7411   81.8612   11.6829 C.ar    1  UNL1        0.0145
     27 C          62.7183   80.9453   12.8706 C.ar    1  UNL1        0.0013
     28 C          62.7118   81.5160   14.2578 C.ar    1  UNL1        0.0001
     29 C          62.7281   83.0026   14.4573 C.ar    1  UNL1        0.0013
     30 C          62.7508   83.9185   13.2695 C.ar    1  UNL1        0.0145
@<TRIPOS>BOND
     1    10    11    1
     2    11    12   ar
     3    12    13   ar
     4    13    14   ar
     5    14    15   ar
     6    15     4    1
     7     4     5   ar
     8     5     6   ar
     9     6     7   ar
    10     7     3    1
    11     3     2    1
    12     2     1    1
    13     1    16    1
    14    16    17    1
    15    17    18    1
    16    18    19    1
    17    19    20    1
    18    20    21    1
    19    21    22    1
    20    22    25    1
    21    25    26   ar
    22    26    27   ar
    23    27    28   ar
    24    28    29   ar
    25    29    30   ar
    26    22    23    1
    27    23    24    1
    28     7     8   ar
    29     8     9    1
    30    15    11   ar
    31     8     4   ar
    32    24    17    1
    33    23    19    1
    34    30    25   ar
@<TRIPOS>MOLECULE
*****
 30 34 0 0 0
SMALL
GASTEIGER

@<TRIPOS>ATOM
      1 C          62.8195   85.3245   16.1430 C.3     1  UNL1        0.0294
      2 C          63.5537   86.5615   16.5684 C.3     1  UNL1        0.0666
      3 S          62.7979   87.8315   16.8246 S.3     1  UNL1       -0.0756
      4 C          64.2560   90.7710   14.7512 C.ar    1  UNL1        0.2029
      5 N          63.8673   91.4744   16.0178 N.ar    1  UNL1       -0.1250
      6 N          63.2739   90.4589   16.9487 N.ar    1  UNL1       -0.1220
      7 C          63.2957   89.1278   16.2574 C.ar    1  UNL1        0.1933
      8 N          63.9026   89.3207   14.8993 N.ar    1  UNL1       -0.2860
      9 C          64.1184   88.2511   13.8700 C.3     1  UNL1        0.1341
     10 C          67.3233   91.8661   14.5470 C.3     1  UNL1        0.0556
     11 C          66.2970   91.9097   13.4540 C.ar    1  UNL1        0.1001
     12 N          66.5003   92.4643   12.0752 N.ar    1  UNL1       -0.2085
     13 C          65.2160   92.3038   11.3169 C.ar    1  UNL1        0.2849
     14 O          64.2190   91.6499   12.2271 O.2     1  UNL1       -0.4283
     15 C          64.8871   91.4064   13.5478 C.ar    1  UNL1        0.1964
     16 C          63.5405   84.2458   15.3903 C.3     1  UNL1        0.0731
     17 N          63.4992   84.2213   13.8911 N.3     1  UNL1       -0.2712
     18 C          64.1748   83.2156   13.0068 C.3     1  UNL1        0.0738
     19 C          63.8681   83.5710   11.5821 C.3     1  UNL1        0.0372
     20 C          64.0962   83.1691   10.1551 C.3     1  UNL1        0.0245
     21 C          63.3720   84.1461    9.2769 C.3     1  UNL1        0.0909
     22 N          62.6964   85.1518   10.1613 N.pl3   1  UNL1       -0.3077
     23 C          63.0031   84.7964   11.5859 C.3     1  UNL1        0.0901
     24 C          62.7750   85.1983   13.0130 C.3     1  UNL1        0.0921
     25 C          61.8609   86.3097    9.7017 C.ar    1  UNL1        0.0478
     26 C          60.7540   86.0903    8.7135 C.ar    1  UNL1        0.0145
     27 C          59.9185   87.2482    8.2539 C.ar    1  UNL1        0.0013
     28 C          60.1899   88.6255    8.7824 C.ar    1  UNL1        0.0001
     29 C          61.2969   88.8449    9.7706 C.ar    1  UNL1        0.0013
     30 C          62.1324   87.6871   10.2303 C.ar    1  UNL1        0.0145
@<TRIPOS>BOND
     1    10    11    1
     2    11    12   ar
     3    12    13   ar
     4    13    14   ar
     5    14    15   ar
     6    15     4    1
     7     4     5   ar
     8     5     6   ar
     9     6     7   ar
    10     7     3    1
    11     3     2    1
    12     2     1    1
    13     1    16    1
    14    16    17    1
    15    17    18    1
    16    18    19    1
    17    19    20    1
    18    20    21    1
    19    21    22    1
    20    22    25    1
    21    25    26   ar
    22    26    27   ar
    23    27    28   ar
    24    28    29   ar
    25    29    30   ar
    26    22    23    1
    27    23    24    1
    28     7     8   ar
    29     8     9    1
    30    15    11   ar
    31     8     4   ar
    32    24    17    1
    33    23    19    1
    34    30    25   ar
@<TRIPOS>MOLECULE
*****
 30 34 0 0 0
SMALL
GASTEIGER

@<TRIPOS>ATOM
      1 C          60.4455   89.8501   11.6703 C.3     1  UNL1        0.0294
      2 C          61.2608   90.8071   10.8521 C.3     1  UNL1        0.0666
      3 S          62.7467   90.6291   10.7497 S.3     1  UNL1       -0.0756
      4 C          65.2738   91.3139   13.6151 C.ar    1  UNL1        0.2029
      5 N          64.5200   90.1406   14.1676 N.ar    1  UNL1       -0.1250
      6 N          63.4816   89.7413   13.1615 N.ar    1  UNL1       -0.1220
      7 C          63.5936   90.6678   11.9871 C.ar    1  UNL1        0.1933
      8 N          64.7013   91.6397   12.2674 N.ar    1  UNL1       -0.2860
      9 C          65.1564   92.7436   11.3595 C.3     1  UNL1        0.1341
     10 C          68.3376   91.5425   12.5147 C.3     1  UNL1        0.0556
     11 C          67.8103   92.1399   13.7856 C.ar    1  UNL1        0.1001
     12 N          68.5987   92.9472   14.7739 N.ar    1  UNL1       -0.2085
     13 C          67.6777   93.3410   15.8905 C.ar    1  UNL1        0.2849
     14 O          66.3201   92.7771   15.5923 O.2     1  UNL1       -0.4283
     15 C          66.4021   92.0348   14.2914 C.ar    1  UNL1        0.1964
     16 C          59.8733   88.6180   11.0343 C.3     1  UNL1        0.0731
     17 N          60.7851   87.5212   10.5698 N.3     1  UNL1       -0.2712
     18 C          61.3849   87.3937    9.2009 C.3     1  UNL1        0.0738
     19 C          62.2276   86.1531    9.1779 C.3     1  UNL1        0.0372
     20 C          63.1192   85.3075    8.3176 C.3     1  UNL1        0.0245
     21 C          63.5914   84.1456    9.1406 C.3     1  UNL1        0.0909
     22 N          62.9916   84.2732   10.5096 N.pl3   1  UNL1       -0.3077
     23 C          62.1488   85.5139   10.5326 C.3     1  UNL1        0.0901
     24 C          61.2572   86.3595   11.3929 C.3     1  UNL1        0.0921
     25 C          63.1983   83.3264   11.6545 C.ar    1  UNL1        0.0478
     26 C          63.7615   83.8287   12.9508 C.ar    1  UNL1        0.0145
     27 C          63.9683   82.8819   14.0957 C.ar    1  UNL1        0.0013
     28 C          63.6118   81.4328   13.9443 C.ar    1  UNL1        0.0001
     29 C          63.0485   80.9304   12.6479 C.ar    1  UNL1        0.0013
     30 C          62.8418   81.8772   11.5030 C.ar    1  UNL1        0.0145
@<TRIPOS>BOND
     1    10    11    1
     2    11    12   ar
     3    12    13   ar
     4    13    14   ar
     5    14    15   ar
     6    15     4    1
     7     4     5   ar
     8     5     6   ar
     9     6     7   ar
    10     7     3    1
    11     3     2    1
    12     2     1    1
    13     1    16    1
    14    16    17    1
    15    17    18    1
    16    18    19    1
    17    19    20    1
    18    20    21    1
    19    21    22    1
    20    22    25    1
    21    25    26   ar
    22    26    27   ar
    23    27    28   ar
    24    28    29   ar
    25    29    30   ar
    26    22    23    1
    27    23    24    1
    28     7     8   ar
    29     8     9    1
    30    15    11   ar
    31     8     4   ar
    32    24    17    1
    33    23    19    1
    34    30    25   ar
@<TRIPOS>MOLECULE
*****
 30 34 0 0 0
SMALL
GASTEIGER

@<TRIPOS>ATOM
      1 C          63.5699   89.1835   15.3997 C.3     1  UNL1        0.0294
      2 C          64.6030   90.0109   14.6939 C.3     1  UNL1        0.0666
      3 S          64.2110   90.8594   13.5208 S.3     1  UNL1       -0.0756
      4 C          66.1727   93.7127   11.7669 C.ar    1  UNL1        0.2029
      5 N          66.6325   93.8742   13.1855 N.ar    1  UNL1       -0.1250
      6 N          65.9536   92.8250   14.0152 N.ar    1  UNL1       -0.1220
      7 C          65.0742   92.0151   13.1093 C.ar    1  UNL1        0.1933
      8 N          65.2096   92.5636   11.7198 N.ar    1  UNL1       -0.2860
      9 C          64.5055   92.0529   10.4978 C.3     1  UNL1        0.1341
     10 C          68.1722   92.7796    9.3625 C.3     1  UNL1        0.0556
     11 C          67.5199   94.1238    9.4950 C.ar    1  UNL1        0.1001
     12 N          67.6720   95.2751    8.5457 N.ar    1  UNL1       -0.2085
     13 C          66.8471   96.4156    9.0641 C.ar    1  UNL1        0.2849
     14 O          66.1850   95.9691   10.3339 O.2     1  UNL1       -0.4283
     15 C          66.6008   94.5527   10.6002 C.ar    1  UNL1        0.1964
     16 C          63.9140   87.8057   15.8825 C.3     1  UNL1        0.0731
     17 N          63.8543   86.6429   14.9369 N.3     1  UNL1       -0.2712
     18 C          64.2950   85.2404   15.2351 C.3     1  UNL1        0.0738
     19 C          64.0564   84.4092   14.0094 C.3     1  UNL1        0.0372
     20 C          64.1814   83.0287   13.4362 C.3     1  UNL1        0.0245
     21 C          63.6705   83.0641   12.0263 C.3     1  UNL1        0.0909
     22 N          63.2298   84.4667   11.7282 N.pl3   1  UNL1       -0.3077
     23 C          63.4683   85.2979   12.9538 C.3     1  UNL1        0.0901
     24 C          63.3434   86.6784   13.5270 C.3     1  UNL1        0.0921
     25 C          62.6521   84.9526   10.4320 C.ar    1  UNL1        0.0478
     26 C          61.4082   85.7908   10.4327 C.ar    1  UNL1        0.0145
     27 C          60.8304   86.2767    9.1366 C.ar    1  UNL1        0.0013
     28 C          61.4965   85.9244    7.8396 C.ar    1  UNL1        0.0001
     29 C          62.7405   85.0861    7.8388 C.ar    1  UNL1        0.0013
     30 C          63.3182   84.6002    9.1350 C.ar    1  UNL1        0.0145
@<TRIPOS>BOND
     1    10    11    1
     2    11    12   ar
     3    12    13   ar
     4    13    14   ar
     5    14    15   ar
     6    15     4    1
     7     4     5   ar
     8     5     6   ar
     9     6     7   ar
    10     7     3    1
    11     3     2    1
    12     2     1    1
    13     1    16    1
    14    16    17    1
    15    17    18    1
    16    18    19    1
    17    19    20    1
    18    20    21    1
    19    21    22    1
    20    22    25    1
    21    25    26   ar
    22    26    27   ar
    23    27    28   ar
    24    28    29   ar
    25    29    30   ar
    26    22    23    1
    27    23    24    1
    28     7     8   ar
    29     8     9    1
    30    15    11   ar
    31     8     4   ar
    32    24    17    1
    33    23    19    1
    34    30    25   ar
@<TRIPOS>MOLECULE
*****
 30 34 0 0 0
SMALL
GASTEIGER

@<TRIPOS>ATOM
      1 C          61.2540   89.3259    9.6712 C.3     1  UNL1        0.0294
      2 C          61.1822   87.8911    9.2393 C.3     1  UNL1        0.0666
      3 S          62.3333   86.9681    9.5094 S.3     1  UNL1       -0.0756
      4 C          62.5828   84.1656   12.1833 C.ar    1  UNL1        0.2029
      5 N          62.0068   85.2889   12.9935 N.ar    1  UNL1       -0.1250
      6 N          61.8432   86.4754   12.0905 N.ar    1  UNL1       -0.1220
      7 C          62.3181   86.0855   10.7222 C.ar    1  UNL1        0.1933
      8 N          62.7752   84.6580   10.7795 N.ar    1  UNL1       -0.2860
      9 C          63.3277   83.8624    9.6341 C.3     1  UNL1        0.1341
     10 C          64.2925   83.4662   14.8735 C.3     1  UNL1        0.0556
     11 C          63.6950   82.4699   13.9247 C.ar    1  UNL1        0.1001
     12 N          63.7783   80.9771   14.0459 N.ar    1  UNL1       -0.2085
     13 C          63.0440   80.3760   12.8843 C.ar    1  UNL1        0.2849
     14 O          62.5067   81.4972   12.0451 O.2     1  UNL1       -0.4283
     15 C          62.9091   82.7913   12.6882 C.ar    1  UNL1        0.1964
     16 C          61.2734   89.6697   11.1311 C.3     1  UNL1        0.0731
     17 N          62.5058   90.2647   11.7452 N.3     1  UNL1       -0.2712
     18 C          62.9765   90.0580   13.1543 C.3     1  UNL1        0.0738
     19 C          64.2455   90.8365   13.3379 C.3     1  UNL1        0.0372
     20 C          65.3207   91.1898   14.3223 C.3     1  UNL1        0.0245
     21 C          66.2988   92.0960   13.6351 C.3     1  UNL1        0.0909
     22 N          65.8280   92.3027   12.2259 N.pl3   1  UNL1       -0.3077
     23 C          64.5591   91.5242   12.0423 C.3     1  UNL1        0.0901
     24 C          63.4839   91.1708   11.0579 C.3     1  UNL1        0.0921
     25 C          66.5071   93.1406   11.1834 C.ar    1  UNL1        0.0478
     26 C          67.4457   92.5026   10.2028 C.ar    1  UNL1        0.0145
     27 C          68.1247   93.3405    9.1603 C.ar    1  UNL1        0.0013
     28 C          67.8651   94.8166    9.0985 C.ar    1  UNL1        0.0001
     29 C          66.9264   95.4547   10.0792 C.ar    1  UNL1        0.0013
     30 C          66.2474   94.6167   11.1217 C.ar    1  UNL1        0.0145
@<TRIPOS>BOND
     1    10    11    1
     2    11    12   ar
     3    12    13   ar
     4    13    14   ar
     5    14    15   ar
     6    15     4    1
     7     4     5   ar
     8     5     6   ar
     9     6     7   ar
    10     7     3    1
    11     3     2    1
    12     2     1    1
    13     1    16    1
    14    16    17    1
    15    17    18    1
    16    18    19    1
    17    19    20    1
    18    20    21    1
    19    21    22    1
    20    22    25    1
    21    25    26   ar
    22    26    27   ar
    23    27    28   ar
    24    28    29   ar
    25    29    30   ar
    26    22    23    1
    27    23    24    1
    28     7     8   ar
    29     8     9    1
    30    15    11   ar
    31     8     4   ar
    32    24    17    1
    33    23    19    1
    34    30    25   ar
@<TRIPOS>MOLECULE
*****
 30 34 0 0 0
SMALL
GASTEIGER

@<TRIPOS>ATOM
      1 C          60.5768   88.8925    9.2386 C.3     1  UNL1        0.0294
      2 C          61.7317   89.7813    9.5941 C.3     1  UNL1        0.0666
      3 S          61.8807   90.2926   10.9963 S.3     1  UNL1       -0.0756
      4 C          64.9860   91.8649   12.7142 C.ar    1  UNL1        0.2029
      5 N          65.1069   92.4249   11.3279 N.ar    1  UNL1       -0.1250
      6 N          63.9585   91.9041   10.5156 N.ar    1  UNL1       -0.1220
      7 C          63.1276   91.0222   11.3999 C.ar    1  UNL1        0.1933
      8 N          63.7626   90.9979   12.7587 N.ar    1  UNL1       -0.2860
      9 C          63.2622   90.2398   13.9524 C.3     1  UNL1        0.1341
     10 C          68.2434   91.7087   12.5947 C.3     1  UNL1        0.0556
     11 C          67.4209   92.0542   13.8006 C.ar    1  UNL1        0.1001
     12 N          67.9512   92.3885   15.1633 N.ar    1  UNL1       -0.2085
     13 C          66.7817   92.6669   16.0604 C.ar    1  UNL1        0.2849
     14 O          65.5286   92.5047   15.2521 O.2     1  UNL1       -0.4283
     15 C          65.9236   92.1260   13.8555 C.ar    1  UNL1        0.1964
     16 C          60.8265   87.5525    8.6125 C.3     1  UNL1        0.0731
     17 N          61.6413   86.5247    9.3403 N.3     1  UNL1       -0.2712
     18 C          62.3851   85.3832    8.7128 C.3     1  UNL1        0.0738
     19 C          63.0587   84.6110    9.8082 C.3     1  UNL1        0.0372
     20 C          63.9348   83.4282   10.0973 C.3     1  UNL1        0.0245
     21 C          64.1487   83.3613   11.5805 C.3     1  UNL1        0.0909
     22 N          63.4048   84.5029   12.2080 N.pl3   1  UNL1       -0.3077
     23 C          62.7312   85.2751   11.1126 C.3     1  UNL1        0.0901
     24 C          61.8552   86.4579   10.8235 C.3     1  UNL1        0.0921
     25 C          63.3451   84.8169   13.6736 C.ar    1  UNL1        0.0478
     26 C          62.4090   84.0571   14.5659 C.ar    1  UNL1        0.0145
     27 C          62.3492   84.3711   16.0314 C.ar    1  UNL1        0.0013
     28 C          63.2256   85.4450   16.6046 C.ar    1  UNL1        0.0001
     29 C          64.1618   86.2049   15.7123 C.ar    1  UNL1        0.0013
     30 C          64.2215   85.8909   14.2468 C.ar    1  UNL1        0.0145
@<TRIPOS>BOND
     1    10    11    1
     2    11    12   ar
     3    12    13   ar
     4    13    14   ar
     5    14    15   ar
     6    15     4    1
     7     4     5   ar
     8     5     6   ar
     9     6     7   ar
    10     7     3    1
    11     3     2    1
    12     2     1    1
    13     1    16    1
    14    16    17    1
    15    17    18    1
    16    18    19    1
    17    19    20    1
    18    20    21    1
    19    21    22    1
    20    22    25    1
    21    25    26   ar
    22    26    27   ar
    23    27    28   ar
    24    28    29   ar
    25    29    30   ar
    26    22    23    1
    27    23    24    1
    28     7     8   ar
    29     8     9    1
    30    15    11   ar
    31     8     4   ar
    32    24    17    1
    33    23    19    1
    34    30    25   ar
@<TRIPOS>MOLECULE
*****
 30 34 0 0 0
SMALL
GASTEIGER

@<TRIPOS>ATOM
      1 C          65.0220   83.8069   13.2971 C.3     1  UNL1        0.0294
      2 C          64.6451   82.6964   12.3618 C.3     1  UNL1        0.0666
      3 S          63.3507   82.7589   11.6065 S.3     1  UNL1       -0.0756
      4 C          62.3618   85.9720    9.6665 C.ar    1  UNL1        0.2029
      5 N          63.0854   85.2018    8.6020 N.ar    1  UNL1       -0.1250
      6 N          63.5439   83.9044    9.1991 N.ar    1  UNL1       -0.1220
      7 C          63.1037   83.8728   10.6327 C.ar    1  UNL1        0.1933
      8 N          62.3731   85.1506   10.9216 N.ar    1  UNL1       -0.2860
      9 C          61.7612   85.5388   12.2349 C.3     1  UNL1        0.1341
     10 C          59.6303   86.6376    8.0095 C.3     1  UNL1        0.0556
     11 C          60.4811   87.6318    8.7428 C.ar    1  UNL1        0.1001
     12 N          60.2258   89.1065    8.8431 N.ar    1  UNL1       -0.2085
     13 C          61.3235   89.7120    9.6668 C.ar    1  UNL1        0.2849
     14 O          62.2573   88.6115   10.0755 O.2     1  UNL1       -0.4283
     15 C          61.7366   87.3259    9.5044 C.ar    1  UNL1        0.1964
     16 C          64.2240   84.0394   14.5457 C.3     1  UNL1        0.0731
     17 N          64.0003   85.4366   15.0435 N.3     1  UNL1       -0.2712
     18 C          63.4297   85.8164   16.3777 C.3     1  UNL1        0.0738
     19 C          63.3846   87.3138   16.4533 C.3     1  UNL1        0.0372
     20 C          63.0041   88.4740   17.3246 C.3     1  UNL1        0.0245
     21 C          63.3118   89.7368   16.5756 C.3     1  UNL1        0.0909
     22 N          63.8825   89.3569   15.2413 N.pl3   1  UNL1       -0.3077
     23 C          63.9275   87.8595   15.1658 C.3     1  UNL1        0.0901
     24 C          64.3080   86.6993   14.2945 C.3     1  UNL1        0.0921
     25 C          64.3296   90.3076   14.1707 C.ar    1  UNL1        0.0478
     26 C          63.5818   90.3806   12.8725 C.ar    1  UNL1        0.0145
     27 C          64.0289   91.3313   11.8018 C.ar    1  UNL1        0.0013
     28 C          65.2238   92.2089   12.0294 C.ar    1  UNL1        0.0001
     29 C          65.9717   92.1359   13.3277 C.ar    1  UNL1        0.0013
     30 C          65.5246   91.1852   14.3983 C.ar    1  UNL1        0.0145
@<TRIPOS>BOND
     1    10    11    1
     2    11    12   ar
     3    12    13   ar
     4    13    14   ar
     5    14    15   ar
     6    15     4    1
     7     4     5   ar
     8     5     6   ar
     9     6     7   ar
    10     7     3    1
    11     3     2    1
    12     2     1    1
    13     1    16    1
    14    16    17    1
    15    17    18    1
    16    18    19    1
    17    19    20    1
    18    20    21    1
    19    21    22    1
    20    22    25    1
    21    25    26   ar
    22    26    27   ar
    23    27    28   ar
    24    28    29   ar
    25    29    30   ar
    26    22    23    1
    27    23    24    1
    28     7     8   ar
    29     8     9    1
    30    15    11   ar
    31     8     4   ar
    32    24    17    1
    33    23    19    1
    34    30    25   ar
@<TRIPOS>MOLECULE
*****
 30 34 0 0 0
SMALL
GASTEIGER

@<TRIPOS>ATOM
      1 C          63.2715   88.8759   16.4605 C.3     1  UNL1        0.0294
      2 C          62.8229   87.6517   17.2022 C.3     1  UNL1        0.0666
      3 S          63.5142   86.3404   16.9728 S.3     1  UNL1       -0.0756
      4 C          62.9443   84.0033   13.9266 C.ar    1  UNL1        0.2029
      5 N          61.5950   83.9614   14.5806 N.ar    1  UNL1       -0.1250
      6 N          61.6442   84.8318   15.8013 N.ar    1  UNL1       -0.1220
      7 C          63.0240   85.4116   15.9017 C.ar    1  UNL1        0.1933
      8 N          63.8275   84.8996   14.7432 N.ar    1  UNL1       -0.2860
      9 C          65.2622   85.2265   14.4522 C.3     1  UNL1        0.1341
     10 C          62.3605   80.8610   13.2670 C.3     1  UNL1        0.0556
     11 C          63.0724   81.8322   12.3726 C.ar    1  UNL1        0.1001
     12 N          63.6411   81.5295   11.0180 N.ar    1  UNL1       -0.2085
     13 C          64.2609   82.7868   10.4839 C.ar    1  UNL1        0.2849
     14 O          64.0753   83.8665   11.5085 O.2     1  UNL1       -0.4283
     15 C          63.3408   83.2765   12.6758 C.ar    1  UNL1        0.1964
     16 C          64.2354   88.7497   15.3182 C.3     1  UNL1        0.0731
     17 N          63.8655   89.2759   13.9631 N.3     1  UNL1       -0.2712
     18 C          64.2276   90.6230   13.4115 C.3     1  UNL1        0.0738
     19 C          63.6544   90.7271   12.0292 C.3     1  UNL1        0.0372
     20 C          63.5239   91.6240   10.8340 C.3     1  UNL1        0.0245
     21 C          62.7271   90.8955    9.7926 C.3     1  UNL1        0.0909
     22 N          62.3650   89.5484   10.3443 N.pl3   1  UNL1       -0.3077
     23 C          62.9382   89.4443   11.7265 C.3     1  UNL1        0.0901
     24 C          63.0687   88.5475   12.9218 C.3     1  UNL1        0.0921
     25 C          61.5696   88.4911    9.6377 C.ar    1  UNL1        0.0478
     26 C          60.3174   88.8621    8.9000 C.ar    1  UNL1        0.0145
     27 C          59.5219   87.8048    8.1935 C.ar    1  UNL1        0.0013
     28 C          59.9786   86.3764    8.2246 C.ar    1  UNL1        0.0001
     29 C          61.2309   86.0052    8.9623 C.ar    1  UNL1        0.0013
     30 C          62.0264   87.0626    9.6689 C.ar    1  UNL1        0.0145
@<TRIPOS>BOND
     1    10    11    1
     2    11    12   ar
     3    12    13   ar
     4    13    14   ar
     5    14    15   ar
     6    15     4    1
     7     4     5   ar
     8     5     6   ar
     9     6     7   ar
    10     7     3    1
    11     3     2    1
    12     2     1    1
    13     1    16    1
    14    16    17    1
    15    17    18    1
    16    18    19    1
    17    19    20    1
    18    20    21    1
    19    21    22    1
    20    22    25    1
    21    25    26   ar
    22    26    27   ar
    23    27    28   ar
    24    28    29   ar
    25    29    30   ar
    26    22    23    1
    27    23    24    1
    28     7     8   ar
    29     8     9    1
    30    15    11   ar
    31     8     4   ar
    32    24    17    1
    33    23    19    1
    34    30    25   ar
