@<TRIPOS>MOLECULE
*****
 42 47 0 0 0
SMALL
GASTEIGER

@<TRIPOS>ATOM
      1 N          65.1552   89.8015   13.5802 N.am    1  UNL1       -0.1907
      2 C          66.2387   90.3085   14.4854 C.2     1  UNL1        0.3219
      3 O          66.8927   89.5391   15.5945 O.2     1  UNL1       -0.2512
      4 N          66.5531   91.7199   14.0866 N.am    1  UNL1       -0.2223
      5 C          65.6641   92.0853   12.9350 C.3     1  UNL1        0.1391
      6 C          64.7152   92.3059   11.7944 C.3     1  UNL1        0.0449
      7 C          64.6938   93.6252   11.0811 C.3     1  UNL1        0.0746
      8 N          65.6214   94.7239   11.5083 N.3     1  UNL1       -0.2676
      9 C          66.5703   94.5033   12.6488 C.3     1  UNL1        0.0746
     10 C          66.5916   93.1840   13.3622 C.3     1  UNL1        0.0449
     11 C          64.8001   90.8997   12.6220 C.2     1  UNL1        0.2529
     12 O          63.7632   90.8252   11.5407 O.2     1  UNL1       -0.2724
     13 C          63.2967   85.7055   13.7155 C.ar    1  UNL1       -0.0002
     14 C          64.2278   86.1431   14.8071 C.ar    1  UNL1        0.0013
     15 C          64.8473   87.5084   14.7620 C.ar    1  UNL1        0.0154
     16 C          64.5357   88.4362   13.6253 C.ar    1  UNL1        0.0622
     17 C          63.6047   87.9986   12.5338 C.ar    1  UNL1        0.0154
     18 C          62.9852   86.6333   12.5789 C.ar    1  UNL1        0.0013
     19 C          63.2895   83.9798   11.2615 C.3     1  UNL1        0.0310
     20 C          62.6736   83.4774   12.5336 C.ar    1  UNL1       -0.0218
     21 C          62.0541   82.1119   12.5787 C.ar    1  UNL1       -0.0031
     22 C          61.4381   81.6095   13.8507 C.ar    1  UNL1        0.0137
     23 C          61.4417   82.4724   15.0778 C.ar    1  UNL1        0.0011
     24 C          62.0612   83.8377   15.0327 C.ar    1  UNL1       -0.0003
     25 C          62.6772   84.3402   13.7606 C.ar    1  UNL1       -0.0040
     26 C          60.8186   80.2441   13.8958 C.2     1  UNL1        0.0729
     27 O          61.5613   79.0649   13.3412 O.co2   1  UNL1       -0.5446
     28 O          59.4563   80.0581   14.4956 O.co2   1  UNL1       -0.5446
     29 C          67.5768   92.6097   14.7270 C.ar    1  UNL1        0.1422
     30 C          67.1676   93.5691   15.8050 C.ar    1  UNL1        0.0554
     31 C          68.1914   94.4590   16.4453 C.ar    1  UNL1        0.1036
     32 N          69.6245   94.3895   16.0076 N.ar    1  UNL1       -0.2223
     33 C          70.0337   93.4301   14.9296 C.ar    1  UNL1        0.2001
     34 N          69.0099   92.5403   14.2893 N.ar    1  UNL1       -0.2086
     35 C          65.6000   96.0433   10.7949 C.3     1  UNL1        0.1183
     36 C          65.7261   96.0903    9.3010 C.ar    1  UNL1        0.0712
     37 N          64.6940   96.8089    8.4834 N.ar    1  UNL1       -0.2471
     38 C          64.8201   96.8558    6.9894 C.ar    1  UNL1        0.0985
     39 C          65.9782   96.1841    6.3130 C.ar    1  UNL1        0.0203
     40 C          67.0103   95.4655    7.1306 C.ar    1  UNL1       -0.0015
     41 C          66.8842   95.4185    8.6245 C.ar    1  UNL1       -0.0069
     42 C          67.9163   94.6999    9.4420 C.3     1  UNL1        0.0323
@<TRIPOS>UNITY_ATOM_ATTR
27 1
charge -1
@<TRIPOS>BOND
     1    19    20    1
     2    20    21   ar
     3    21    22   ar
     4    22    26    1
     5    26    27   ar
     6    26    28   ar
     7    22    23   ar
     8    23    24   ar
     9    24    25   ar
    10    25    13    1
    11    13    14   ar
    12    14    15   ar
    13    15    16   ar
    14    16     1    1
    15     1     2   am
    16     2     3    2
    17     2     4   am
    18     4    29    1
    19    29    30   ar
    20    30    31   ar
    21    31    32   ar
    22    32    33   ar
    23    33    34   ar
    24     4     5    1
    25     5     6    1
    26     6     7    1
    27     7     8    1
    28     8    35    1
    29    35    36    1
    30    36    37   ar
    31    37    38   ar
    32    38    39   ar
    33    39    40   ar
    34    40    41   ar
    35    41    42    1
    36     8     9    1
    37     9    10    1
    38     5    11    1
    39    11    12    2
    40    16    17   ar
    41    17    18   ar
    42    25    20   ar
    43    18    13   ar
    44    11     1   am
    45    34    29   ar
    46    10     5    1
    47    41    36   ar
@<TRIPOS>MOLECULE
*****
 42 47 0 0 0
SMALL
GASTEIGER

@<TRIPOS>ATOM
      1 N          63.7481   87.5929   12.8005 N.am    1  UNL1       -0.1907
      2 C          64.0198   88.2065   14.1421 C.2     1  UNL1        0.3219
      3 O          64.1436   87.4669   15.4410 O.2     1  UNL1       -0.2512
      4 N          64.1460   89.6896   13.9565 N.am    1  UNL1       -0.2223
      5 C          63.9524   89.9927   12.5002 C.3     1  UNL1        0.1391
      6 C          63.7393   90.1414   11.0229 C.3     1  UNL1        0.0449
      7 C          63.7837   91.5015   10.3919 C.3     1  UNL1        0.0746
      8 N          64.0412   92.7129   11.2382 N.3     1  UNL1       -0.2676
      9 C          64.2543   92.5642   12.7155 C.3     1  UNL1        0.0746
     10 C          64.2099   91.2041   13.3465 C.3     1  UNL1        0.0449
     11 C          63.7064   88.6969   11.7857 C.2     1  UNL1        0.2529
     12 O          63.4618   88.5337   10.3149 O.2     1  UNL1       -0.2724
     13 C          63.1612   83.2101   11.9664 C.ar    1  UNL1       -0.0002
     14 C          64.0958   83.6478   13.0550 C.ar    1  UNL1        0.0013
     15 C          64.2914   85.1088   13.3330 C.ar    1  UNL1        0.0154
     16 C          63.5525   86.1320   12.5225 C.ar    1  UNL1        0.0622
     17 C          62.6180   85.6942   11.4340 C.ar    1  UNL1        0.0154
     18 C          62.4224   84.2333   11.1559 C.ar    1  UNL1        0.0013
     19 C          62.2568   81.3737   14.1596 C.3     1  UNL1        0.0310
     20 C          62.5134   80.8310   12.7850 C.ar    1  UNL1       -0.0218
     21 C          62.3177   79.3700   12.5070 C.ar    1  UNL1       -0.0031
     22 C          62.5743   78.8271   11.1324 C.ar    1  UNL1        0.0137
     23 C          63.0265   79.7454   10.0358 C.ar    1  UNL1        0.0011
     24 C          63.2222   81.2063   10.3138 C.ar    1  UNL1       -0.0003
     25 C          62.9656   81.7491   11.6884 C.ar    1  UNL1       -0.0040
     26 C          62.3787   77.3662   10.8544 C.2     1  UNL1        0.0729
     27 O          60.9940   76.8122   10.6937 O.co2   1  UNL1       -0.5446
     28 O          63.5677   76.4592   10.7370 O.co2   1  UNL1       -0.5446
     29 C          64.4182   90.6935   15.0373 C.ar    1  UNL1        0.1422
     30 C          65.7676   91.3407   15.1373 C.ar    1  UNL1        0.0554
     31 C          66.0396   92.3446   16.2182 C.ar    1  UNL1        0.1036
     32 N          64.9622   92.7012   17.1991 N.ar    1  UNL1       -0.2223
     33 C          63.6128   92.0539   17.0990 C.ar    1  UNL1        0.2001
     34 N          63.3408   91.0501   16.0182 N.ar    1  UNL1       -0.2086
     35 C          64.0856   94.0730   10.6071 C.3     1  UNL1        0.1183
     36 C          65.3536   94.5654    9.9748 C.ar    1  UNL1        0.0712
     37 N          66.5519   93.6664    9.8986 N.ar    1  UNL1       -0.2471
     38 C          67.8199   94.1589    9.2663 C.ar    1  UNL1        0.0985
     39 C          67.8896   95.5502    8.7103 C.ar    1  UNL1        0.0203
     40 C          66.6912   96.4492    8.7866 C.ar    1  UNL1       -0.0015
     41 C          65.4233   95.9568    9.4188 C.ar    1  UNL1       -0.0069
     42 C          64.2250   96.8558    9.4951 C.3     1  UNL1        0.0323
@<TRIPOS>UNITY_ATOM_ATTR
27 1
charge -1
@<TRIPOS>BOND
     1    19    20    1
     2    20    21   ar
     3    21    22   ar
     4    22    26    1
     5    26    27   ar
     6    26    28   ar
     7    22    23   ar
     8    23    24   ar
     9    24    25   ar
    10    25    13    1
    11    13    14   ar
    12    14    15   ar
    13    15    16   ar
    14    16     1    1
    15     1     2   am
    16     2     3    2
    17     2     4   am
    18     4    29    1
    19    29    30   ar
    20    30    31   ar
    21    31    32   ar
    22    32    33   ar
    23    33    34   ar
    24     4     5    1
    25     5     6    1
    26     6     7    1
    27     7     8    1
    28     8    35    1
    29    35    36    1
    30    36    37   ar
    31    37    38   ar
    32    38    39   ar
    33    39    40   ar
    34    40    41   ar
    35    41    42    1
    36     8     9    1
    37     9    10    1
    38     5    11    1
    39    11    12    2
    40    16    17   ar
    41    17    18   ar
    42    25    20   ar
    43    18    13   ar
    44    11     1   am
    45    34    29   ar
    46    10     5    1
    47    41    36   ar
