@<TRIPOS>MOLECULE
*****
 33 37 0 0 0
SMALL
GASTEIGER

@<TRIPOS>ATOM
      1 N          62.5236   87.2761   11.7925 N.3     1  UNL1       -0.2679
      2 C          62.8334   88.7169   11.5126 C.3     1  UNL1        0.0978
      3 C          62.4216   89.3329   10.2085 C.3     1  UNL1        0.0224
      4 C          62.7314   90.7736    9.9285 C.3     1  UNL1        0.0065
      5 C          63.4530   91.5983   10.9528 C.3     1  UNL1        0.0277
      6 C          63.8649   90.9823   12.2569 C.ar    1  UNL1       -0.0073
      7 C          64.5865   91.8070   13.2812 C.ar    1  UNL1       -0.0015
      8 C          64.9983   91.1909   14.5854 C.ar    1  UNL1        0.0203
      9 C          64.6885   89.7502   14.8653 C.ar    1  UNL1        0.0985
     10 N          63.9669   88.9255   13.8411 N.ar    1  UNL1       -0.2471
     11 C          63.5550   89.5415   12.5368 C.ar    1  UNL1        0.0695
     12 C          61.3512   86.6182   11.1274 C.3     1  UNL1        0.0724
     13 N          61.8827   84.4697    5.5505 N.3     1  UNL1       -0.3222
     14 C          61.7498   85.0068    6.9447 C.3     1  UNL1        0.0508
     15 C          62.8917   84.8804    7.9091 C.3     1  UNL1        0.0155
     16 C          62.7588   85.4175    9.3034 C.3     1  UNL1        0.0027
     17 C          61.4841   86.0811    9.7332 C.3     1  UNL1        0.0161
     18 C          60.3421   86.2075    8.7687 C.3     1  UNL1        0.0027
     19 C          60.4750   85.6704    7.3745 C.3     1  UNL1        0.0155
     20 H          62.8074   84.0556    5.4324 H       1  UNL1        0.1188
     21 H          61.7623   85.2294    4.8806 H       1  UNL1        0.1188
     22 C          63.3862   86.4934   12.7376 C.3     1  UNL1        0.0886
     23 C          63.0117   85.0884   13.1061 C.3     1  UNL1        0.0748
     24 C          63.2471   83.9701   12.1345 C.3     1  UNL1        0.0432
     25 C          62.8726   82.5651   12.5030 C.ar    1  UNL1       -0.0234
     26 C          63.1080   81.4468   11.5315 C.ar    1  UNL1       -0.0045
     27 C          62.7335   80.0419   11.9000 C.ar    1  UNL1       -0.0003
     28 C          62.1237   79.7552   13.2401 C.ar    1  UNL1       -0.0003
     29 C          61.8883   80.8734   14.2117 C.ar    1  UNL1       -0.0032
     30 C          62.2628   82.2784   13.8432 C.ar    1  UNL1       -0.0103
     31 C          62.0274   83.3968   14.8148 C.3     1  UNL1        0.0953
     32 N          62.4019   84.8017   14.4462 N.3     1  UNL1       -0.2934
     33 H          63.0691   85.1223   15.1480 H       1  UNL1        0.1236
@<TRIPOS>BOND
     1    14    13    1
     2    14    15    1
     3    15    16    1
     4    16    17    1
     5    17    12    1
     6    12     1    1
     7     1    22    1
     8    23    22    1
     9    23    24    1
    10    24    25    1
    11    25    26   ar
    12    26    27   ar
    13    27    28   ar
    14    28    29   ar
    15    29    30   ar
    16    30    31    1
    17    31    32    1
    18     2     1    1
    19     2     3    1
    20     3     4    1
    21     4     5    1
    22     5     6    1
    23     6     7   ar
    24     7     8   ar
    25     8     9   ar
    26     9    10   ar
    27    10    11   ar
    28    17    18    1
    29    18    19    1
    30    19    14    1
    31    32    23    1
    32    11     2    1
    33    30    25   ar
    34    11     6   ar
    35    13    20    1
    36    13    21    1
    37    32    33    1
@<TRIPOS>MOLECULE
*****
 33 37 0 0 0
SMALL
GASTEIGER

@<TRIPOS>ATOM
      1 N          63.9079   90.2600   13.0411 N.3     1  UNL1       -0.2679
      2 C          64.6841   91.4743   12.6253 C.3     1  UNL1        0.0978
      3 C          64.5751   91.9896   11.2209 C.3     1  UNL1        0.0224
      4 C          65.3513   93.2039   10.8051 C.3     1  UNL1        0.0065
      5 C          66.2365   93.9031   11.7938 C.3     1  UNL1        0.0277
      6 C          66.3455   93.3878   13.1983 C.ar    1  UNL1       -0.0073
      7 C          67.2307   94.0870   14.1871 C.ar    1  UNL1       -0.0015
      8 C          67.3397   93.5718   15.5915 C.ar    1  UNL1        0.0203
      9 C          66.5636   92.3574   16.0073 C.ar    1  UNL1        0.0985
     10 N          65.6784   91.6583   15.0186 N.ar    1  UNL1       -0.2471
     11 C          65.5693   92.1735   13.6140 C.ar    1  UNL1        0.0695
     12 C          64.6249   89.0661   13.5984 C.3     1  UNL1        0.0724
     13 N          62.4736   86.2705   18.4519 N.3     1  UNL1       -0.3222
     14 C          63.0114   86.9694   17.2386 C.3     1  UNL1        0.0508
     15 C          63.6265   86.1737   16.1257 C.3     1  UNL1        0.0155
     16 C          64.1643   86.8726   14.9123 C.3     1  UNL1        0.0027
     17 C          64.0871   88.3672   14.8118 C.3     1  UNL1        0.0161
     18 C          63.4720   89.1630   15.9247 C.3     1  UNL1        0.0027
     19 C          62.9341   88.4641   17.1381 C.3     1  UNL1        0.0155
     20 H          62.6080   85.2643   18.3522 H       1  UNL1        0.1188
     21 H          61.4784   86.4728   18.5477 H       1  UNL1        0.1188
     22 C          62.4148   90.2395   12.8996 C.3     1  UNL1        0.0886
     23 C          61.7835   89.5860   11.7061 C.3     1  UNL1        0.0748
     24 C          62.3275   88.2885   11.1861 C.3     1  UNL1        0.0432
     25 C          61.6961   87.6350    9.9925 C.ar    1  UNL1       -0.0234
     26 C          62.2402   86.3375    9.4725 C.ar    1  UNL1       -0.0045
     27 C          61.6088   85.6841    8.2790 C.ar    1  UNL1       -0.0003
     28 C          60.4334   86.3283    7.6056 C.ar    1  UNL1       -0.0003
     29 C          59.8894   87.6258    8.1256 C.ar    1  UNL1       -0.0032
     30 C          60.5207   88.2792    9.3190 C.ar    1  UNL1       -0.0103
     31 C          59.9767   89.5767    9.8391 C.3     1  UNL1        0.0953
     32 N          60.6081   90.2301   11.0326 N.3     1  UNL1       -0.2934
     33 H          59.8778   90.3217   11.7388 H       1  UNL1        0.1236
@<TRIPOS>BOND
     1    14    13    1
     2    14    15    1
     3    15    16    1
     4    16    17    1
     5    17    12    1
     6    12     1    1
     7     1    22    1
     8    23    22    1
     9    23    24    1
    10    24    25    1
    11    25    26   ar
    12    26    27   ar
    13    27    28   ar
    14    28    29   ar
    15    29    30   ar
    16    30    31    1
    17    31    32    1
    18     2     1    1
    19     2     3    1
    20     3     4    1
    21     4     5    1
    22     5     6    1
    23     6     7   ar
    24     7     8   ar
    25     8     9   ar
    26     9    10   ar
    27    10    11   ar
    28    17    18    1
    29    18    19    1
    30    19    14    1
    31    32    23    1
    32    11     2    1
    33    30    25   ar
    34    11     6   ar
    35    13    20    1
    36    13    21    1
    37    32    33    1
@<TRIPOS>MOLECULE
*****
 33 37 0 0 0
SMALL
GASTEIGER

@<TRIPOS>ATOM
      1 N          61.7673   87.3038   11.5505 N.3     1  UNL1       -0.2679
      2 C          62.3926   86.1229   10.8688 C.3     1  UNL1        0.0978
      3 C          62.6485   86.1587    9.3913 C.3     1  UNL1        0.0224
      4 C          63.2738   84.9778    8.7096 C.3     1  UNL1        0.0065
      5 C          63.6431   83.7613    9.5055 C.3     1  UNL1        0.0277
      6 C          63.3872   83.7255   10.9830 C.ar    1  UNL1       -0.0073
      7 C          63.7566   82.5089   11.7790 C.ar    1  UNL1       -0.0015
      8 C          63.5007   82.4732   13.2565 C.ar    1  UNL1        0.0203
      9 C          62.8754   83.6540   13.9382 C.ar    1  UNL1        0.0985
     10 N          62.5061   84.8706   13.1423 N.ar    1  UNL1       -0.2471
     11 C          62.7620   84.9064   11.6647 C.ar    1  UNL1        0.0695
     12 C          60.3528   87.6899   11.2344 C.3     1  UNL1        0.0724
     13 N          58.9082   89.5284    5.7087 N.3     1  UNL1       -0.3222
     14 C          59.2694   89.0688    7.0901 C.3     1  UNL1        0.0508
     15 C          59.8922   90.0279    8.0607 C.3     1  UNL1        0.0155
     16 C          60.2533   89.5682    9.4422 C.3     1  UNL1        0.0027
     17 C          59.9916   88.1496    9.8529 C.3     1  UNL1        0.0161
     18 C          59.3688   87.1904    8.8823 C.3     1  UNL1        0.0027
     19 C          59.0076   87.6500    7.5009 C.3     1  UNL1        0.0155
     20 H          59.1538   90.5127    5.6028 H       1  UNL1        0.1188
     21 H          57.9057   89.4104    5.5623 H       1  UNL1        0.1188
     22 C          62.5565   88.0984   12.5482 C.3     1  UNL1        0.0886
     23 C          63.2163   89.3800   12.1332 C.3     1  UNL1        0.0748
     24 C          64.1196   90.1022   13.0884 C.3     1  UNL1        0.0432
     25 C          64.7794   91.3838   12.6733 C.ar    1  UNL1       -0.0234
     26 C          65.6827   92.1059   13.6285 C.ar    1  UNL1       -0.0045
     27 C          66.3425   93.3875   13.2135 C.ar    1  UNL1       -0.0003
     28 C          66.0989   93.9469   11.8432 C.ar    1  UNL1       -0.0003
     29 C          65.1956   93.2247   10.8879 C.ar    1  UNL1       -0.0032
     30 C          64.5359   91.9432   11.3030 C.ar    1  UNL1       -0.0103
     31 C          63.6325   91.2210   10.3478 C.3     1  UNL1        0.0953
     32 N          62.9728   89.9394   10.7629 N.3     1  UNL1       -0.2934
     33 H          63.2695   89.2263   10.0967 H       1  UNL1        0.1236
@<TRIPOS>BOND
     1    14    13    1
     2    14    15    1
     3    15    16    1
     4    16    17    1
     5    17    12    1
     6    12     1    1
     7     1    22    1
     8    23    22    1
     9    23    24    1
    10    24    25    1
    11    25    26   ar
    12    26    27   ar
    13    27    28   ar
    14    28    29   ar
    15    29    30   ar
    16    30    31    1
    17    31    32    1
    18     2     1    1
    19     2     3    1
    20     3     4    1
    21     4     5    1
    22     5     6    1
    23     6     7   ar
    24     7     8   ar
    25     8     9   ar
    26     9    10   ar
    27    10    11   ar
    28    17    18    1
    29    18    19    1
    30    19    14    1
    31    32    23    1
    32    11     2    1
    33    30    25   ar
    34    11     6   ar
    35    13    20    1
    36    13    21    1
    37    32    33    1
@<TRIPOS>MOLECULE
*****
 33 37 0 0 0
SMALL
GASTEIGER

@<TRIPOS>ATOM
      1 N          63.7098   89.8072   13.5264 N.3     1  UNL1       -0.2679
      2 C          64.3919   90.9749   12.8775 C.3     1  UNL1        0.0978
      3 C          64.1438   91.2788   11.4298 C.3     1  UNL1        0.0224
      4 C          64.8259   92.4465   10.7809 C.3     1  UNL1        0.0065
      5 C          65.7562   93.3104   11.5798 C.3     1  UNL1        0.0277
      6 C          66.0044   93.0065   13.0275 C.ar    1  UNL1       -0.0073
      7 C          66.9347   93.8704   13.8265 C.ar    1  UNL1       -0.0015
      8 C          67.1828   93.5666   15.2742 C.ar    1  UNL1        0.0203
      9 C          66.5007   92.3988   15.9231 C.ar    1  UNL1        0.0985
     10 N          65.5704   91.5349   15.1242 N.ar    1  UNL1       -0.2471
     11 C          65.3222   91.8388   13.6764 C.ar    1  UNL1        0.0695
     12 C          62.2318   89.6140   13.3589 C.3     1  UNL1        0.0724
     13 N          59.9081   88.8495    7.8802 N.3     1  UNL1       -0.3222
     14 C          60.4891   89.0406    9.2499 C.3     1  UNL1        0.0508
     15 C          61.6210   88.1719    9.7124 C.3     1  UNL1        0.0155
     16 C          62.2019   88.3630   11.0820 C.3     1  UNL1        0.0027
     17 C          61.6509   89.4229   11.9892 C.3     1  UNL1        0.0161
     18 C          60.5189   90.2917   11.5267 C.3     1  UNL1        0.0027
     19 C          59.9380   90.1006   10.1570 C.3     1  UNL1        0.0155
     20 H          60.3994   88.0923    7.4051 H       1  UNL1        0.1188
     21 H          60.0114   89.7109    7.3438 H       1  UNL1        0.1188
     22 C          64.5057   88.8325   14.3429 C.3     1  UNL1        0.0886
     23 C          64.0234   87.4216   14.5067 C.3     1  UNL1        0.0748
     24 C          63.8576   86.5412   13.3037 C.3     1  UNL1        0.0432
     25 C          63.3753   85.1303   13.4676 C.ar    1  UNL1       -0.0234
     26 C          63.2095   84.2498   12.2646 C.ar    1  UNL1       -0.0045
     27 C          62.7272   82.8390   12.4285 C.ar    1  UNL1       -0.0003
     28 C          62.4107   82.3086   13.7955 C.ar    1  UNL1       -0.0003
     29 C          62.5764   83.1891   14.9985 C.ar    1  UNL1       -0.0032
     30 C          63.0587   84.5999   14.8345 C.ar    1  UNL1       -0.0103
     31 C          63.2245   85.4804   16.0376 C.3     1  UNL1        0.0953
     32 N          63.7068   86.8913   15.8737 N.3     1  UNL1       -0.2934
     33 H          64.5590   86.9773   16.4275 H       1  UNL1        0.1236
@<TRIPOS>BOND
     1    14    13    1
     2    14    15    1
     3    15    16    1
     4    16    17    1
     5    17    12    1
     6    12     1    1
     7     1    22    1
     8    23    22    1
     9    23    24    1
    10    24    25    1
    11    25    26   ar
    12    26    27   ar
    13    27    28   ar
    14    28    29   ar
    15    29    30   ar
    16    30    31    1
    17    31    32    1
    18     2     1    1
    19     2     3    1
    20     3     4    1
    21     4     5    1
    22     5     6    1
    23     6     7   ar
    24     7     8   ar
    25     8     9   ar
    26     9    10   ar
    27    10    11   ar
    28    17    18    1
    29    18    19    1
    30    19    14    1
    31    32    23    1
    32    11     2    1
    33    30    25   ar
    34    11     6   ar
    35    13    20    1
    36    13    21    1
    37    32    33    1
@<TRIPOS>MOLECULE
*****
 33 37 0 0 0
SMALL
GASTEIGER

@<TRIPOS>ATOM
      1 N          63.0628   85.4061   12.9058 N.3     1  UNL1       -0.2679
      2 C          63.3010   84.1812   12.0735 C.3     1  UNL1        0.0978
      3 C          63.9625   84.3023   10.7328 C.3     1  UNL1        0.0224
      4 C          64.2006   83.0774    9.9005 C.3     1  UNL1        0.0065
      5 C          63.7772   81.7312   10.4089 C.3     1  UNL1        0.0277
      6 C          63.1157   81.6100   11.7496 C.ar    1  UNL1       -0.0073
      7 C          62.6922   80.2638   12.2581 C.ar    1  UNL1       -0.0015
      8 C          62.0307   80.1426   13.5988 C.ar    1  UNL1        0.0203
      9 C          61.7926   81.3676   14.4312 C.ar    1  UNL1        0.0985
     10 N          62.2160   82.7137   13.9227 N.ar    1  UNL1       -0.2471
     11 C          62.8776   82.8350   12.5819 C.ar    1  UNL1        0.0695
     12 C          64.1710   85.9698   13.7450 C.3     1  UNL1        0.0724
     13 N          63.3591   91.1140   16.7245 N.3     1  UNL1       -0.3222
     14 C          63.5621   89.8279   15.9796 C.3     1  UNL1        0.0508
     15 C          64.0123   89.8528   14.5490 C.3     1  UNL1        0.0155
     16 C          64.2153   88.5668   13.8042 C.3     1  UNL1        0.0027
     17 C          63.9680   87.2558   14.4899 C.3     1  UNL1        0.0161
     18 C          63.5178   87.2309   15.9205 C.3     1  UNL1        0.0027
     19 C          63.3148   88.5170   16.6654 C.3     1  UNL1        0.0155
     20 H          63.5713   91.9000   16.1100 H       1  UNL1        0.1188
     21 H          63.9783   91.1391   17.5347 H       1  UNL1        0.1188
     22 C          61.7166   86.0674   12.8990 C.3     1  UNL1        0.0886
     23 C          61.3057   86.9203   11.7354 C.3     1  UNL1        0.0748
     24 C          60.7387   86.2829   10.5016 C.3     1  UNL1        0.0432
     25 C          60.3279   87.1357    9.3380 C.ar    1  UNL1       -0.0234
     26 C          59.7609   86.4984    8.1042 C.ar    1  UNL1       -0.0045
     27 C          59.3501   87.3512    6.9407 C.ar    1  UNL1       -0.0003
     28 C          59.5063   88.8414    7.0109 C.ar    1  UNL1       -0.0003
     29 C          60.0734   89.4787    8.2446 C.ar    1  UNL1       -0.0032
     30 C          60.4841   88.6259    9.4082 C.ar    1  UNL1       -0.0103
     31 C          61.0512   89.2633   10.6420 C.3     1  UNL1        0.0953
     32 N          61.4620   88.4105   11.8056 N.3     1  UNL1       -0.2934
     33 H          60.9179   88.7261   12.6085 H       1  UNL1        0.1236
@<TRIPOS>BOND
     1    14    13    1
     2    14    15    1
     3    15    16    1
     4    16    17    1
     5    17    12    1
     6    12     1    1
     7     1    22    1
     8    23    22    1
     9    23    24    1
    10    24    25    1
    11    25    26   ar
    12    26    27   ar
    13    27    28   ar
    14    28    29   ar
    15    29    30   ar
    16    30    31    1
    17    31    32    1
    18     2     1    1
    19     2     3    1
    20     3     4    1
    21     4     5    1
    22     5     6    1
    23     6     7   ar
    24     7     8   ar
    25     8     9   ar
    26     9    10   ar
    27    10    11   ar
    28    17    18    1
    29    18    19    1
    30    19    14    1
    31    32    23    1
    32    11     2    1
    33    30    25   ar
    34    11     6   ar
    35    13    20    1
    36    13    21    1
    37    32    33    1
@<TRIPOS>MOLECULE
*****
 33 37 0 0 0
SMALL
GASTEIGER

@<TRIPOS>ATOM
      1 N          62.0053   87.4971   11.1839 N.3     1  UNL1       -0.2679
      2 C          61.0860   87.2216   10.0310 C.3     1  UNL1        0.0978
      3 C          59.7190   87.8382    9.9979 C.3     1  UNL1        0.0224
      4 C          58.7998   87.5627    8.8450 C.3     1  UNL1        0.0065
      5 C          59.2475   86.6707    7.7253 C.3     1  UNL1        0.0277
      6 C          60.6145   86.0542    7.7585 C.ar    1  UNL1       -0.0073
      7 C          61.0623   85.1621    6.6387 C.ar    1  UNL1       -0.0015
      8 C          62.4293   84.5456    6.6718 C.ar    1  UNL1        0.0203
      9 C          63.3486   84.8211    7.8247 C.ar    1  UNL1        0.0985
     10 N          62.9008   85.7131    8.9444 N.ar    1  UNL1       -0.2471
     11 C          61.5338   86.3296    8.9113 C.ar    1  UNL1        0.0695
     12 C          61.7985   88.7159   12.0334 C.3     1  UNL1        0.0724
     13 N          65.8565   93.1351   11.9784 N.3     1  UNL1       -0.3222
     14 C          64.8420   92.0303   11.9921 C.3     1  UNL1        0.0508
     15 C          64.6156   91.2354   13.2439 C.3     1  UNL1        0.0155
     16 C          63.6011   90.1307   13.2576 C.3     1  UNL1        0.0027
     17 C          62.8130   89.8207   12.0197 C.3     1  UNL1        0.0161
     18 C          63.0393   90.6156   10.7678 C.3     1  UNL1        0.0027
     19 C          64.0538   91.7204   10.7540 C.3     1  UNL1        0.0155
     20 H          66.2944   93.2060   12.8969 H       1  UNL1        0.1188
     21 H          65.3961   94.0167   11.7522 H       1  UNL1        0.1188
     22 C          63.1314   86.5538   11.4872 C.3     1  UNL1        0.0886
     23 C          62.8588   85.2686   12.2112 C.3     1  UNL1        0.0748
     24 C          63.0105   83.9585   11.4967 C.3     1  UNL1        0.0432
     25 C          62.7380   82.6734   12.2208 C.ar    1  UNL1       -0.0234
     26 C          62.8897   81.3633   11.5063 C.ar    1  UNL1       -0.0045
     27 C          62.6171   80.0782   12.2303 C.ar    1  UNL1       -0.0003
     28 C          62.1929   80.1032   13.6688 C.ar    1  UNL1       -0.0003
     29 C          62.0412   81.4133   14.3833 C.ar    1  UNL1       -0.0032
     30 C          62.3137   82.6984   13.6593 C.ar    1  UNL1       -0.0103
     31 C          62.1620   84.0086   14.3738 C.3     1  UNL1        0.0953
     32 N          62.4346   85.2937   13.6498 N.3     1  UNL1       -0.2934
     33 H          63.1729   85.7717   14.1662 H       1  UNL1        0.1236
@<TRIPOS>BOND
     1    14    13    1
     2    14    15    1
     3    15    16    1
     4    16    17    1
     5    17    12    1
     6    12     1    1
     7     1    22    1
     8    23    22    1
     9    23    24    1
    10    24    25    1
    11    25    26   ar
    12    26    27   ar
    13    27    28   ar
    14    28    29   ar
    15    29    30   ar
    16    30    31    1
    17    31    32    1
    18     2     1    1
    19     2     3    1
    20     3     4    1
    21     4     5    1
    22     5     6    1
    23     6     7   ar
    24     7     8   ar
    25     8     9   ar
    26     9    10   ar
    27    10    11   ar
    28    17    18    1
    29    18    19    1
    30    19    14    1
    31    32    23    1
    32    11     2    1
    33    30    25   ar
    34    11     6   ar
    35    13    20    1
    36    13    21    1
    37    32    33    1
@<TRIPOS>MOLECULE
*****
 33 37 0 0 0
SMALL
GASTEIGER

@<TRIPOS>ATOM
      1 N          62.3726   87.7177   11.8848 N.3     1  UNL1       -0.2679
      2 C          63.2490   88.6450   12.6735 C.3     1  UNL1        0.0978
      3 C          63.6942   88.2633   14.0541 C.3     1  UNL1        0.0224
      4 C          64.5706   89.1906   14.8427 C.3     1  UNL1        0.0065
      5 C          65.0018   90.4996   14.2508 C.3     1  UNL1        0.0277
      6 C          64.5566   90.8814   12.8703 C.ar    1  UNL1       -0.0073
      7 C          64.9878   92.1905   12.2783 C.ar    1  UNL1       -0.0015
      8 C          64.5425   92.5723   10.8978 C.ar    1  UNL1        0.0203
      9 C          63.6661   91.6450   10.1091 C.ar    1  UNL1        0.0985
     10 N          63.2350   90.3359   10.7010 N.ar    1  UNL1       -0.2471
     11 C          63.6802   89.9541   12.0816 C.ar    1  UNL1        0.0695
     12 C          60.9262   88.0528   11.6717 C.3     1  UNL1        0.0724
     13 N          58.8666   89.0652    6.1279 N.3     1  UNL1       -0.3222
     14 C          59.3815   88.8121    7.5138 C.3     1  UNL1        0.0508
     15 C          59.4709   87.4088    8.0361 C.3     1  UNL1        0.0155
     16 C          59.9858   87.1557    9.4221 C.3     1  UNL1        0.0027
     17 C          60.4113   88.3059   10.2857 C.3     1  UNL1        0.0161
     18 C          60.3219   89.7093    9.7635 C.3     1  UNL1        0.0027
     19 C          59.8070   89.9623    8.3775 C.3     1  UNL1        0.0155
     20 H          58.6255   88.1774    5.6874 H       1  UNL1        0.1188
     21 H          59.5869   89.5331    5.5778 H       1  UNL1        0.1188
     22 C          62.9426   86.4552   11.3093 C.3     1  UNL1        0.0886
     23 C          62.7661   85.1539   12.0343 C.3     1  UNL1        0.0748
     24 C          62.9273   83.8572   11.2977 C.3     1  UNL1        0.0432
     25 C          62.7508   82.5559   12.0227 C.ar    1  UNL1       -0.0234
     26 C          62.9120   81.2592   11.2861 C.ar    1  UNL1       -0.0045
     27 C          62.7355   79.9580   12.0111 C.ar    1  UNL1       -0.0003
     28 C          62.3978   79.9534   13.4726 C.ar    1  UNL1       -0.0003
     29 C          62.2366   81.2501   14.2091 C.ar    1  UNL1       -0.0032
     30 C          62.4131   82.5514   13.4842 C.ar    1  UNL1       -0.0103
     31 C          62.2519   83.8482   14.2207 C.3     1  UNL1        0.0953
     32 N          62.4284   85.1494   13.4958 N.3     1  UNL1       -0.2934
     33 H          63.1766   85.6529   13.9724 H       1  UNL1        0.1236
@<TRIPOS>BOND
     1    14    13    1
     2    14    15    1
     3    15    16    1
     4    16    17    1
     5    17    12    1
     6    12     1    1
     7     1    22    1
     8    23    22    1
     9    23    24    1
    10    24    25    1
    11    25    26   ar
    12    26    27   ar
    13    27    28   ar
    14    28    29   ar
    15    29    30   ar
    16    30    31    1
    17    31    32    1
    18     2     1    1
    19     2     3    1
    20     3     4    1
    21     4     5    1
    22     5     6    1
    23     6     7   ar
    24     7     8   ar
    25     8     9   ar
    26     9    10   ar
    27    10    11   ar
    28    17    18    1
    29    18    19    1
    30    19    14    1
    31    32    23    1
    32    11     2    1
    33    30    25   ar
    34    11     6   ar
    35    13    20    1
    36    13    21    1
    37    32    33    1
@<TRIPOS>MOLECULE
*****
 33 37 0 0 0
SMALL
GASTEIGER

@<TRIPOS>ATOM
      1 N          63.6916   89.0591   14.3285 N.3     1  UNL1       -0.2679
      2 C          63.4359   88.1141   15.4650 C.3     1  UNL1        0.0978
      3 C          63.0413   88.6480   16.8100 C.3     1  UNL1        0.0224
      4 C          62.7855   87.7029   17.9465 C.3     1  UNL1        0.0065
      5 C          62.9243   86.2240   17.7379 C.3     1  UNL1        0.0277
      6 C          63.3189   85.6902   16.3928 C.ar    1  UNL1       -0.0073
      7 C          63.4577   84.2112   16.1841 C.ar    1  UNL1       -0.0015
      8 C          63.8523   83.6773   14.8391 C.ar    1  UNL1        0.0203
      9 C          64.1080   84.6224   13.7026 C.ar    1  UNL1        0.0985
     10 N          63.9693   86.1013   13.9112 N.ar    1  UNL1       -0.2471
     11 C          63.5747   86.6352   15.2564 C.ar    1  UNL1        0.0695
     12 C          63.6690   90.5401   14.5651 C.3     1  UNL1        0.0724
     13 N          68.7938   93.4985   15.5572 N.3     1  UNL1       -0.3222
     14 C          67.5126   92.7589   15.3092 C.3     1  UNL1        0.0508
     15 C          66.4487   92.7263   16.3661 C.3     1  UNL1        0.0155
     16 C          65.1675   91.9867   16.1180 C.3     1  UNL1        0.0027
     17 C          64.9502   91.2797   14.8131 C.3     1  UNL1        0.0161
     18 C          66.0141   91.3123   13.7561 C.3     1  UNL1        0.0027
     19 C          67.2953   92.0519   14.0041 C.3     1  UNL1        0.0155
     20 H          68.7709   93.9158   16.4877 H       1  UNL1        0.1188
     21 H          68.9033   94.2329   14.8579 H       1  UNL1        0.1188
     22 C          63.9701   88.5231   12.9555 C.3     1  UNL1        0.0886
     23 C          62.9535   88.6892   11.8651 C.3     1  UNL1        0.0748
     24 C          62.4165   87.4847   11.1505 C.3     1  UNL1        0.0432
     25 C          61.3998   87.6508   10.0601 C.ar    1  UNL1       -0.0234
     26 C          60.8628   86.4463    9.3455 C.ar    1  UNL1       -0.0045
     27 C          59.8463   86.6125    8.2551 C.ar    1  UNL1       -0.0003
     28 C          59.3667   87.9832    7.8794 C.ar    1  UNL1       -0.0003
     29 C          59.9037   89.1877    8.5940 C.ar    1  UNL1       -0.0032
     30 C          60.9203   89.0215    9.6843 C.ar    1  UNL1       -0.0103
     31 C          61.4573   90.2261   10.3990 C.3     1  UNL1        0.0953
     32 N          62.4739   90.0599   11.4893 N.3     1  UNL1       -0.2934
     33 H          62.0726   90.4726   12.3314 H       1  UNL1        0.1236
@<TRIPOS>BOND
     1    14    13    1
     2    14    15    1
     3    15    16    1
     4    16    17    1
     5    17    12    1
     6    12     1    1
     7     1    22    1
     8    23    22    1
     9    23    24    1
    10    24    25    1
    11    25    26   ar
    12    26    27   ar
    13    27    28   ar
    14    28    29   ar
    15    29    30   ar
    16    30    31    1
    17    31    32    1
    18     2     1    1
    19     2     3    1
    20     3     4    1
    21     4     5    1
    22     5     6    1
    23     6     7   ar
    24     7     8   ar
    25     8     9   ar
    26     9    10   ar
    27    10    11   ar
    28    17    18    1
    29    18    19    1
    30    19    14    1
    31    32    23    1
    32    11     2    1
    33    30    25   ar
    34    11     6   ar
    35    13    20    1
    36    13    21    1
    37    32    33    1
@<TRIPOS>MOLECULE
*****
 33 37 0 0 0
SMALL
GASTEIGER

@<TRIPOS>ATOM
      1 N          63.7263   88.2882   13.6291 N.3     1  UNL1       -0.2679
      2 C          63.1890   88.8263   12.3361 C.3     1  UNL1        0.0978
      3 C          63.4093   90.2649   11.9732 C.3     1  UNL1        0.0224
      4 C          62.8719   90.8030   10.6802 C.3     1  UNL1        0.0065
      5 C          62.1142   89.9025    9.7503 C.3     1  UNL1        0.0277
      6 C          61.8939   88.4639   10.1132 C.ar    1  UNL1       -0.0073
      7 C          61.1361   87.5633    9.1833 C.ar    1  UNL1       -0.0015
      8 C          60.9158   86.1247    9.5462 C.ar    1  UNL1        0.0203
      9 C          61.4532   85.5866   10.8391 C.ar    1  UNL1        0.0985
     10 N          62.2109   86.4871   11.7691 N.ar    1  UNL1       -0.2471
     11 C          62.4313   87.9258   11.4062 C.ar    1  UNL1        0.0695
     12 C          63.4845   89.0317   14.9092 C.3     1  UNL1        0.0724
     13 N          66.9729   93.6865   16.3800 N.3     1  UNL1       -0.3222
     14 C          66.1008   92.5228   16.0123 C.3     1  UNL1        0.0508
     15 C          66.5188   91.5896   14.9150 C.3     1  UNL1        0.0155
     16 C          65.6467   90.4259   14.5472 C.3     1  UNL1        0.0027
     17 C          64.3566   90.1954   15.2769 C.3     1  UNL1        0.0161
     18 C          63.9385   91.1287   16.3743 C.3     1  UNL1        0.0027
     19 C          64.8106   92.2924   16.7420 C.3     1  UNL1        0.0155
     20 H          67.8029   93.6901   15.7871 H       1  UNL1        0.1188
     21 H          67.2536   93.6056   17.3573 H       1  UNL1        0.1188
     22 C          64.5056   87.0066   13.6419 C.3     1  UNL1        0.0886
     23 C          63.8001   85.7021   13.8671 C.3     1  UNL1        0.0748
     24 C          64.0239   84.5561   12.9256 C.3     1  UNL1        0.0432
     25 C          63.3184   83.2516   13.1508 C.ar    1  UNL1       -0.0234
     26 C          63.5422   82.1056   12.2092 C.ar    1  UNL1       -0.0045
     27 C          62.8368   80.8012   12.4344 C.ar    1  UNL1       -0.0003
     28 C          61.9075   80.6428   13.6012 C.ar    1  UNL1       -0.0003
     29 C          61.6837   81.7887   14.5428 C.ar    1  UNL1       -0.0032
     30 C          62.3892   83.0932   14.3176 C.ar    1  UNL1       -0.0103
     31 C          62.1654   84.2392   15.2591 C.3     1  UNL1        0.0953
     32 N          62.8709   85.5437   15.0339 N.3     1  UNL1       -0.2934
     33 H          63.4183   85.7312   15.8739 H       1  UNL1        0.1236
@<TRIPOS>BOND
     1    14    13    1
     2    14    15    1
     3    15    16    1
     4    16    17    1
     5    17    12    1
     6    12     1    1
     7     1    22    1
     8    23    22    1
     9    23    24    1
    10    24    25    1
    11    25    26   ar
    12    26    27   ar
    13    27    28   ar
    14    28    29   ar
    15    29    30   ar
    16    30    31    1
    17    31    32    1
    18     2     1    1
    19     2     3    1
    20     3     4    1
    21     4     5    1
    22     5     6    1
    23     6     7   ar
    24     7     8   ar
    25     8     9   ar
    26     9    10   ar
    27    10    11   ar
    28    17    18    1
    29    18    19    1
    30    19    14    1
    31    32    23    1
    32    11     2    1
    33    30    25   ar
    34    11     6   ar
    35    13    20    1
    36    13    21    1
    37    32    33    1
