@<TRIPOS>MOLECULE
*****
 23 25 0 0 0
SMALL
GASTEIGER

@<TRIPOS>ATOM
      1 C          61.8376   88.4729   10.2720 C.ar    1  UNL1        0.1384
      2 C          62.5945   89.0471   11.4327 C.ar    1  UNL1        0.0369
      3 C          63.1920   88.1356   12.4633 C.ar    1  UNL1        0.0025
      4 C          63.0325   86.6498   12.3332 C.ar    1  UNL1       -0.0076
      5 C          62.2755   86.0755   11.1725 C.ar    1  UNL1       -0.0154
      6 C          61.6781   86.9871   10.1419 C.ar    1  UNL1        0.0329
      7 C          62.2821   84.5816   11.3083 C.3     1  UNL1        0.0481
      8 C          63.0431   84.2327   12.5529 C.2     1  UNL1       -0.0420
      9 C          63.5068   85.5109   13.1864 C.2     1  UNL1       -0.0242
     10 C          60.0113   88.9644    8.4907 C.3     1  UNL1        0.2525
     11 O          61.2402   89.3844    9.2414 O.3     1  UNL1       -0.4714
     12 C          64.3048   85.6294   14.4509 C.3     1  UNL1        0.0681
     13 C          65.7088   85.1037   14.5038 C.3     1  UNL1        0.0116
     14 C          63.6991   86.2734   15.6626 C.ar    1  UNL1        0.0919
     15 N          63.6299   87.7466   15.9364 N.ar    1  UNL1       -0.2408
     16 C          62.9442   87.9412   17.2561 C.ar    1  UNL1        0.1061
     17 C          62.5895   86.5882   17.7981 C.ar    1  UNL1        0.0572
     18 S          63.0560   85.5575   16.8133 S.2     1  UNL1       -0.0699
     19 C          63.2959   82.8486   13.0729 C.3     1  UNL1        0.0394
     20 C          62.3420   82.2288   14.0506 C.3     1  UNL1        0.0765
     21 N          61.7018   80.9084   13.7397 N.3     1  UNL1       -0.2700
     22 C          62.4799   79.8495   13.0163 C.3     1  UNL1        0.0897
     23 C          60.2836   80.6469   14.1523 C.3     1  UNL1        0.0897
@<TRIPOS>BOND
     1    10    11    1
     2    11     1    1
     3     1     2   ar
     4     2     3   ar
     5     3     4   ar
     6     4     5   ar
     7     5     6   ar
     8     5     7    1
     9     7     8    1
    10     8    19    1
    11    19    20    1
    12    20    21    1
    13    21    22    1
    14    21    23    1
    15     8     9    2
    16     9    12    1
    17    12    13    1
    18    12    14    1
    19    14    15   ar
    20    15    16   ar
    21    16    17   ar
    22    17    18   ar
    23     6     1   ar
    24    18    14   ar
    25     9     4    1
@<TRIPOS>MOLECULE
*****
 23 25 0 0 0
SMALL
GASTEIGER

@<TRIPOS>ATOM
      1 C          61.3175   89.1598    9.7399 C.ar    1  UNL1        0.1384
      2 C          61.5881   90.5172   10.3180 C.ar    1  UNL1        0.0369
      3 C          62.3762   90.6483   11.5875 C.ar    1  UNL1        0.0025
      4 C          62.8937   89.4220   12.2790 C.ar    1  UNL1       -0.0076
      5 C          62.6232   88.0645   11.7009 C.ar    1  UNL1       -0.0154
      6 C          61.8351   87.9335   10.4314 C.ar    1  UNL1        0.0329
      7 C          63.2566   87.0436   12.5991 C.3     1  UNL1        0.0481
      8 C          63.9185   87.7701   13.7322 C.2     1  UNL1       -0.0420
      9 C          63.6943   89.2400   13.5344 C.2     1  UNL1       -0.0242
     10 C          59.7036   87.8011    8.2237 C.3     1  UNL1        0.2525
     11 O          60.5294   89.0287    8.4704 O.3     1  UNL1       -0.4714
     12 C          64.1845   90.3356   14.4340 C.3     1  UNL1        0.0681
     13 C          63.6398   90.4633   15.8257 C.3     1  UNL1        0.0116
     14 C          65.2194   91.3034   13.9419 C.ar    1  UNL1        0.0919
     15 N          65.0119   92.3616   12.8992 N.ar    1  UNL1       -0.2408
     16 C          66.3077   93.0953   12.7190 C.ar    1  UNL1        0.1061
     17 C          67.3162   92.4905   13.6503 C.ar    1  UNL1        0.0572
     18 S          66.6436   91.3831   14.4061 S.2     1  UNL1       -0.0699
     19 C          64.6724   87.1377   14.8644 C.3     1  UNL1        0.0394
     20 C          64.3987   85.7127   15.2443 C.3     1  UNL1        0.0765
     21 N          63.1303   85.3582   15.9621 N.3     1  UNL1       -0.2700
     22 C          62.7114   86.1368   17.1738 C.3     1  UNL1        0.0897
     23 C          62.2806   84.2250   15.4682 C.3     1  UNL1        0.0897
@<TRIPOS>BOND
     1    10    11    1
     2    11     1    1
     3     1     2   ar
     4     2     3   ar
     5     3     4   ar
     6     4     5   ar
     7     5     6   ar
     8     5     7    1
     9     7     8    1
    10     8    19    1
    11    19    20    1
    12    20    21    1
    13    21    22    1
    14    21    23    1
    15     8     9    2
    16     9    12    1
    17    12    13    1
    18    12    14    1
    19    14    15   ar
    20    15    16   ar
    21    16    17   ar
    22    17    18   ar
    23     6     1   ar
    24    18    14   ar
    25     9     4    1
@<TRIPOS>MOLECULE
*****
 23 25 0 0 0
SMALL
GASTEIGER

@<TRIPOS>ATOM
      1 C          63.4853   82.5915   13.3716 C.ar    1  UNL1        0.1384
      2 C          62.6793   82.7452   12.1160 C.ar    1  UNL1        0.0369
      3 C          62.4032   84.1125   11.5646 C.ar    1  UNL1        0.0025
      4 C          62.9332   85.3263   12.2688 C.ar    1  UNL1       -0.0076
      5 C          63.7392   85.1726   13.5245 C.ar    1  UNL1       -0.0154
      6 C          64.0152   83.8052   14.0759 C.ar    1  UNL1        0.0329
      7 C          64.1278   86.5424   13.9965 C.3     1  UNL1        0.0481
      8 C          63.5619   87.5426   13.0325 C.2     1  UNL1       -0.0420
      9 C          62.8236   86.7910   11.9648 C.2     1  UNL1       -0.0242
     10 C          62.7185   80.1505   13.8230 C.3     1  UNL1        0.2525
     11 O          63.7613   81.2241   13.9230 O.3     1  UNL1       -0.4714
     12 C          62.1023   87.3976   10.7978 C.3     1  UNL1        0.0681
     13 C          62.3515   86.8817    9.4115 C.3     1  UNL1        0.0116
     14 C          61.1319   88.5202   11.0170 C.ar    1  UNL1        0.0919
     15 N          60.0639   88.5696   12.0692 N.ar    1  UNL1       -0.2408
     16 C          59.3310   89.8703   11.9251 C.ar    1  UNL1        0.1061
     17 C          59.9460   90.6250   10.7839 C.ar    1  UNL1        0.0572
     18 S          61.0590   89.7906   10.2227 S.2     1  UNL1       -0.0699
     19 C          63.7085   89.0329   13.1207 C.3     1  UNL1        0.0394
     20 C          62.8782   89.8116   14.0976 C.3     1  UNL1        0.0765
     21 N          63.4155   90.1138   15.4650 N.3     1  UNL1       -0.2700
     22 C          64.2809   91.3197   15.6812 C.3     1  UNL1        0.0897
     23 C          63.0873   89.2100   16.6163 C.3     1  UNL1        0.0897
@<TRIPOS>BOND
     1    10    11    1
     2    11     1    1
     3     1     2   ar
     4     2     3   ar
     5     3     4   ar
     6     4     5   ar
     7     5     6   ar
     8     5     7    1
     9     7     8    1
    10     8    19    1
    11    19    20    1
    12    20    21    1
    13    21    22    1
    14    21    23    1
    15     8     9    2
    16     9    12    1
    17    12    13    1
    18    12    14    1
    19    14    15   ar
    20    15    16   ar
    21    16    17   ar
    22    17    18   ar
    23     6     1   ar
    24    18    14   ar
    25     9     4    1
@<TRIPOS>MOLECULE
*****
 23 25 0 0 0
SMALL
GASTEIGER

@<TRIPOS>ATOM
      1 C          64.1997   90.3913   14.1543 C.ar    1  UNL1        0.1384
      2 C          63.5377   90.2605   12.8147 C.ar    1  UNL1        0.0369
      3 C          63.2097   88.9021   12.2696 C.ar    1  UNL1        0.0025
      4 C          63.5437   87.6745   13.0641 C.ar    1  UNL1       -0.0076
      5 C          64.2057   87.8053   14.4037 C.ar    1  UNL1       -0.0154
      6 C          64.5337   89.1637   14.9488 C.ar    1  UNL1        0.0329
      7 C          64.4136   86.4256   14.9548 C.3     1  UNL1        0.0481
      8 C          63.8801   85.4423   13.9556 C.2     1  UNL1       -0.0420
      9 C          63.3424   86.2141   12.7872 C.2     1  UNL1       -0.0242
     10 C          65.9413   92.0879   15.0698 C.3     1  UNL1        0.2525
     11 O          64.5277   91.7497   14.6994 O.3     1  UNL1       -0.4714
     12 C          62.7139   85.6284   11.5576 C.3     1  UNL1        0.0681
     13 C          63.0574   84.2315   11.1325 C.3     1  UNL1        0.0116
     14 C          61.7419   86.4394   10.7531 C.ar    1  UNL1        0.0919
     15 N          60.5939   87.2357   11.2991 N.ar    1  UNL1       -0.2408
     16 C          59.8896   87.8851   10.1449 C.ar    1  UNL1        0.1061
     17 C          60.6023   87.4901    8.8855 C.ar    1  UNL1        0.0572
     18 S          61.7470   86.5967    9.2613 S.2     1  UNL1       -0.0699
     19 C          63.8835   83.9491   14.0996 C.3     1  UNL1        0.0394
     20 C          62.6128   83.2248   14.4324 C.3     1  UNL1        0.0765
     21 N          62.4412   81.7892   14.0330 N.3     1  UNL1       -0.2700
     22 C          63.6056   81.0190   13.4845 C.3     1  UNL1        0.0897
     23 C          61.1051   81.1239   14.1821 C.3     1  UNL1        0.0897
@<TRIPOS>BOND
     1    10    11    1
     2    11     1    1
     3     1     2   ar
     4     2     3   ar
     5     3     4   ar
     6     4     5   ar
     7     5     6   ar
     8     5     7    1
     9     7     8    1
    10     8    19    1
    11    19    20    1
    12    20    21    1
    13    21    22    1
    14    21    23    1
    15     8     9    2
    16     9    12    1
    17    12    13    1
    18    12    14    1
    19    14    15   ar
    20    15    16   ar
    21    16    17   ar
    22    17    18   ar
    23     6     1   ar
    24    18    14   ar
    25     9     4    1
@<TRIPOS>MOLECULE
*****
 23 25 0 0 0
SMALL
GASTEIGER

@<TRIPOS>ATOM
      1 C          62.2064   89.6867   10.8717 C.ar    1  UNL1        0.1384
      2 C          62.8270   90.7374    9.9995 C.ar    1  UNL1        0.0369
      3 C          63.9029   91.6274   10.5475 C.ar    1  UNL1        0.0025
      4 C          64.3582   91.4666   11.9676 C.ar    1  UNL1       -0.0076
      5 C          63.7376   90.4159   12.8398 C.ar    1  UNL1       -0.0154
      6 C          62.6617   89.5259   12.2918 C.ar    1  UNL1        0.0329
      7 C          64.3866   90.4916   14.1901 C.3     1  UNL1        0.0481
      8 C          65.4083   91.5891   14.1524 C.2     1  UNL1       -0.0420
      9 C          65.3908   92.1917   12.7788 C.2     1  UNL1       -0.0242
     10 C          61.3918   87.3315   10.1371 C.3     1  UNL1        0.2525
     11 O          61.1304   88.7967   10.3237 O.3     1  UNL1       -0.4714
     12 C          66.2542   93.3212   12.3005 C.3     1  UNL1        0.0681
     13 C          66.3340   94.5920   13.0933 C.3     1  UNL1        0.0116
     14 C          67.0379   93.1798   11.0293 C.ar    1  UNL1        0.0919
     15 N          68.0771   92.1359   10.7456 N.ar    1  UNL1       -0.2408
     16 C          68.6015   92.3684    9.3597 C.ar    1  UNL1        0.1061
     17 C          67.8864   93.5560    8.7867 C.ar    1  UNL1        0.0572
     18 S          66.9201   94.0575    9.8185 S.2     1  UNL1       -0.0699
     19 C          66.2924   92.0101   15.2887 C.3     1  UNL1        0.0394
     20 C          67.7336   91.5947   15.3114 C.3     1  UNL1        0.0765
     21 N          68.8070   92.5931   14.9937 N.3     1  UNL1       -0.2700
     22 C          69.7785   92.3221   13.8834 C.3     1  UNL1        0.0897
     23 C          68.9090   93.8624   15.7863 C.3     1  UNL1        0.0897
@<TRIPOS>BOND
     1    10    11    1
     2    11     1    1
     3     1     2   ar
     4     2     3   ar
     5     3     4   ar
     6     4     5   ar
     7     5     6   ar
     8     5     7    1
     9     7     8    1
    10     8    19    1
    11    19    20    1
    12    20    21    1
    13    21    22    1
    14    21    23    1
    15     8     9    2
    16     9    12    1
    17    12    13    1
    18    12    14    1
    19    14    15   ar
    20    15    16   ar
    21    16    17   ar
    22    17    18   ar
    23     6     1   ar
    24    18    14   ar
    25     9     4    1
@<TRIPOS>MOLECULE
*****
 23 25 0 0 0
SMALL
GASTEIGER

@<TRIPOS>ATOM
      1 C          63.9280   84.9004   14.2465 C.ar    1  UNL1        0.1384
      2 C          63.2499   84.8823   12.9087 C.ar    1  UNL1        0.0369
      3 C          62.9879   86.1687   12.1831 C.ar    1  UNL1        0.0025
      4 C          63.4039   87.4733   12.7954 C.ar    1  UNL1       -0.0076
      5 C          64.0820   87.4914   14.1332 C.ar    1  UNL1       -0.0154
      6 C          64.3441   86.2050   14.8588 C.ar    1  UNL1        0.0329
      7 C          64.3762   88.9198   14.4845 C.3     1  UNL1        0.0481
      8 C          63.8799   89.7844   13.3637 C.2     1  UNL1       -0.0420
      9 C          63.2790   88.8904   12.3198 C.2     1  UNL1       -0.0242
     10 C          63.5586   82.3406   14.4929 C.3     1  UNL1        0.2525
     11 O          64.1901   83.6140   14.9721 O.3     1  UNL1       -0.4714
     12 C          62.6615   89.3353   11.0273 C.3     1  UNL1        0.0681
     13 C          62.9643   90.6995   10.4819 C.3     1  UNL1        0.0116
     14 C          61.7413   88.4162   10.2800 C.ar    1  UNL1        0.0919
     15 N          62.1502   87.4058    9.2495 N.ar    1  UNL1       -0.2408
     16 C          60.9124   86.7112    8.7646 C.ar    1  UNL1        0.1061
     17 C          59.7383   87.2923    9.4954 C.ar    1  UNL1        0.0572
     18 S          60.2506   88.3460   10.4319 S.2     1  UNL1       -0.0699
     19 C          63.9688   91.2804   13.2983 C.3     1  UNL1        0.0394
     20 C          65.2853   91.9418   13.0169 C.3     1  UNL1        0.0765
     21 N          66.3067   92.0737   14.1074 N.3     1  UNL1       -0.2700
     22 C          67.7658   91.9317   13.7896 C.3     1  UNL1        0.0897
     23 C          65.8690   92.3476   15.5157 C.3     1  UNL1        0.0897
@<TRIPOS>BOND
     1    10    11    1
     2    11     1    1
     3     1     2   ar
     4     2     3   ar
     5     3     4   ar
     6     4     5   ar
     7     5     6   ar
     8     5     7    1
     9     7     8    1
    10     8    19    1
    11    19    20    1
    12    20    21    1
    13    21    22    1
    14    21    23    1
    15     8     9    2
    16     9    12    1
    17    12    13    1
    18    12    14    1
    19    14    15   ar
    20    15    16   ar
    21    16    17   ar
    22    17    18   ar
    23     6     1   ar
    24    18    14   ar
    25     9     4    1
@<TRIPOS>MOLECULE
*****
 23 25 0 0 0
SMALL
GASTEIGER

@<TRIPOS>ATOM
      1 C          64.0496   90.8974   12.9432 C.ar    1  UNL1        0.1384
      2 C          63.1881   91.1830   11.7490 C.ar    1  UNL1        0.0369
      3 C          62.4807   90.0608   11.0488 C.ar    1  UNL1        0.0025
      4 C          62.6349   88.6529   11.5428 C.ar    1  UNL1       -0.0076
      5 C          63.4964   88.3673   12.7370 C.ar    1  UNL1       -0.0154
      6 C          64.2037   89.4895   13.4372 C.ar    1  UNL1        0.0329
      7 C          63.4589   86.8897   12.9929 C.3     1  UNL1        0.0481
      8 C          62.5742   86.2622   11.9568 C.2     1  UNL1       -0.0420
      9 C          62.0649   87.3519   11.0606 C.2     1  UNL1       -0.0242
     10 C          65.6755   91.7262   14.7923 C.3     1  UNL1        0.2525
     11 O          64.7569   92.0196   13.6434 O.3     1  UNL1       -0.4714
     12 C          61.1469   87.1722    9.8880 C.3     1  UNL1        0.0681
     13 C          59.8307   87.8907    9.8490 C.3     1  UNL1        0.0116
     14 C          61.5450   86.2741    8.7545 C.ar    1  UNL1        0.0919
     15 N          62.9075   85.6880    8.5307 N.ar    1  UNL1       -0.2408
     16 C          62.8552   84.8561    7.2837 C.ar    1  UNL1        0.1061
     17 C          61.4602   84.9280    6.7367 C.ar    1  UNL1        0.0572
     18 S          60.6505   85.8044    7.6457 S.2     1  UNL1       -0.0699
     19 C          62.2548   84.8014   11.8378 C.3     1  UNL1        0.0394
     20 C          63.2302   83.7772   12.3374 C.3     1  UNL1        0.0765
     21 N          62.8711   82.9059   13.5042 N.3     1  UNL1       -0.2700
     22 C          62.9595   81.4135   13.3812 C.3     1  UNL1        0.0897
     23 C          62.4235   83.5268   14.7942 C.3     1  UNL1        0.0897
@<TRIPOS>BOND
     1    10    11    1
     2    11     1    1
     3     1     2   ar
     4     2     3   ar
     5     3     4   ar
     6     4     5   ar
     7     5     6   ar
     8     5     7    1
     9     7     8    1
    10     8    19    1
    11    19    20    1
    12    20    21    1
    13    21    22    1
    14    21    23    1
    15     8     9    2
    16     9    12    1
    17    12    13    1
    18    12    14    1
    19    14    15   ar
    20    15    16   ar
    21    16    17   ar
    22    17    18   ar
    23     6     1   ar
    24    18    14   ar
    25     9     4    1
@<TRIPOS>MOLECULE
*****
 23 25 0 0 0
SMALL
GASTEIGER

@<TRIPOS>ATOM
      1 C          61.9764   89.9000   11.5468 C.ar    1  UNL1        0.1384
      2 C          62.4769   90.3333   10.2008 C.ar    1  UNL1        0.0369
      3 C          63.7112   91.1792   10.0962 C.ar    1  UNL1        0.0025
      4 C          64.4451   91.5917   11.3376 C.ar    1  UNL1       -0.0076
      5 C          63.9447   91.1584   12.6836 C.ar    1  UNL1       -0.0154
      6 C          62.7103   90.3126   12.7882 C.ar    1  UNL1        0.0329
      7 C          64.8708   91.7155   13.7239 C.3     1  UNL1        0.0481
      8 C          65.9436   92.4931   13.0207 C.2     1  UNL1       -0.0420
      9 C          65.6805   92.4166   11.5460 C.2     1  UNL1       -0.0242
     10 C          59.4771   89.6388   12.2063 C.3     1  UNL1        0.2525
     11 O          60.7421   89.0542   11.6514 O.3     1  UNL1       -0.4714
     12 C          66.5076   93.0532   10.4686 C.3     1  UNL1        0.0681
     13 C          67.5359   92.2438    9.7356 C.3     1  UNL1        0.0116
     14 C          66.3064   94.4992   10.1243 C.ar    1  UNL1        0.0919
     15 N          65.4212   95.4647   10.8552 N.ar    1  UNL1       -0.2408
     16 C          65.5227   96.7958   10.1714 C.ar    1  UNL1        0.1061
     17 C          66.4707   96.6530    9.0176 C.ar    1  UNL1        0.0572
     18 S          66.9550   95.2337    8.9885 S.2     1  UNL1       -0.0699
     19 C          67.0800   93.2197   13.6771 C.3     1  UNL1        0.0394
     20 C          67.1015   93.3880   15.1675 C.3     1  UNL1        0.0765
     21 N          68.4000   93.3017   15.9133 N.3     1  UNL1       -0.2700
     22 C          68.8513   91.9900   16.4841 C.3     1  UNL1        0.0897
     23 C          69.2472   94.5270   16.0885 C.3     1  UNL1        0.0897
@<TRIPOS>BOND
     1    10    11    1
     2    11     1    1
     3     1     2   ar
     4     2     3   ar
     5     3     4   ar
     6     4     5   ar
     7     5     6   ar
     8     5     7    1
     9     7     8    1
    10     8    19    1
    11    19    20    1
    12    20    21    1
    13    21    22    1
    14    21    23    1
    15     8     9    2
    16     9    12    1
    17    12    13    1
    18    12    14    1
    19    14    15   ar
    20    15    16   ar
    21    16    17   ar
    22    17    18   ar
    23     6     1   ar
    24    18    14   ar
    25     9     4    1
@<TRIPOS>MOLECULE
*****
 23 25 0 0 0
SMALL
GASTEIGER

@<TRIPOS>ATOM
      1 C          64.1284   90.1817   14.0682 C.ar    1  UNL1        0.1384
      2 C          63.3791   89.9930   12.7825 C.ar    1  UNL1        0.0369
      3 C          63.0563   88.6104   12.2985 C.ar    1  UNL1        0.0025
      4 C          63.4827   87.4165   13.1002 C.ar    1  UNL1       -0.0076
      5 C          64.2320   87.6052   14.3859 C.ar    1  UNL1       -0.0154
      6 C          64.5548   88.9878   14.8699 C.ar    1  UNL1        0.0329
      7 C          64.5205   86.2487   14.9577 C.3     1  UNL1        0.0481
      8 C          63.9495   85.2218   14.0254 C.2     1  UNL1       -0.0420
      9 C          63.3081   85.9435   12.8774 C.2     1  UNL1       -0.0242
     10 C          65.8776   92.0247   14.6099 C.3     1  UNL1        0.2525
     11 O          64.4512   91.5643   14.5522 O.3     1  UNL1       -0.4714
     12 C          62.6140   85.3044   11.7113 C.3     1  UNL1        0.0681
     13 C          61.4378   85.9834   11.0745 C.3     1  UNL1        0.0116
     14 C          63.0960   83.9863   11.1820 C.ar    1  UNL1        0.0919
     15 N          62.4284   82.6581   11.3827 N.ar    1  UNL1       -0.2408
     16 C          63.2500   81.6159   10.6838 C.ar    1  UNL1        0.1061
     17 C          64.4255   82.2999   10.0510 C.ar    1  UNL1        0.0572
     18 S          64.3304   83.7648   10.3589 S.2     1  UNL1       -0.0699
     19 C          64.0093   83.7342   14.2088 C.3     1  UNL1        0.0394
     20 C          62.8667   83.0122   14.8594 C.3     1  UNL1        0.0765
     21 N          62.5272   81.6128   14.4394 N.3     1  UNL1       -0.2700
     22 C          61.0921   81.1962   14.3090 C.3     1  UNL1        0.0897
     23 C          63.6227   80.6301   14.1498 C.3     1  UNL1        0.0897
@<TRIPOS>BOND
     1    10    11    1
     2    11     1    1
     3     1     2   ar
     4     2     3   ar
     5     3     4   ar
     6     4     5   ar
     7     5     6   ar
     8     5     7    1
     9     7     8    1
    10     8    19    1
    11    19    20    1
    12    20    21    1
    13    21    22    1
    14    21    23    1
    15     8     9    2
    16     9    12    1
    17    12    13    1
    18    12    14    1
    19    14    15   ar
    20    15    16   ar
    21    16    17   ar
    22    17    18   ar
    23     6     1   ar
    24    18    14   ar
    25     9     4    1
