@<TRIPOS>MOLECULE
*****
 19 21 0 0 0
SMALL
GASTEIGER

@<TRIPOS>ATOM
      1 C          65.8551   93.4363   12.4164 C.ar    1  UNL1        0.1296
      2 N          66.8041   94.0405   13.4086 N.ar    1  UNL1       -0.2293
      3 C          67.0738   93.3434   14.7091 C.ar    1  UNL1        0.1018
      4 C          66.3945   92.0420   15.0174 C.ar    1  UNL1        0.0398
      5 C          65.4455   91.4378   14.0252 C.ar    1  UNL1        0.0852
      6 N          64.6348   90.1761   14.0515 N.2     1  UNL1       -0.2455
      7 C          63.8640   90.0935   12.7673 C.2     1  UNL1        0.0777
      8 C          62.9009   89.0722   12.2387 C.2     1  UNL1        0.0185
      9 C          62.2722   89.2617   10.8901 C.2     1  UNL1       -0.0027
     10 C          62.6066   90.4723   10.0701 C.2     1  UNL1       -0.0213
     11 C          63.5697   91.4936   10.5987 C.3     1  UNL1        0.0540
     12 C          64.1984   91.3041   11.9473 C.2     1  UNL1        0.0040
     13 C          65.1758   92.1350   12.7247 C.ar    1  UNL1        0.0468
     14 N          65.5855   94.1336   11.1159 N.pl3   1  UNL1       -0.3181
     15 H          64.6878   94.0948   10.7135 H       1  UNL1        0.1482
     16 C          66.6836   94.8897   10.4286 C.3     1  UNL1        0.0882
     17 C          67.2790   94.3582    9.1586 C.3     1  UNL1        0.0212
     18 C          68.1568   91.9787    9.7223 C.3     1  UNL1        0.0001
     19 C          68.4047   93.3684    9.2148 C.3     1  UNL1        0.0017
@<TRIPOS>BOND
     1    18    19    1
     2    19    17    1
     3    17    16    1
     4    16    14    1
     5    14     1    1
     6     1     2   ar
     7     2     3   ar
     8     3     4   ar
     9     4     5   ar
    10     5     6    2
    11     6     7    1
    12     7     8    2
    13     8     9    1
    14     9    10    2
    15    10    11    1
    16    11    12    1
    17    12    13    2
    18    13     1   ar
    19    13     5   ar
    20    12     7    1
    21    14    15    1
@<TRIPOS>MOLECULE
*****
 19 21 0 0 0
SMALL
GASTEIGER

@<TRIPOS>ATOM
      1 C          62.6739   83.4919   13.8493 C.ar    1  UNL1        0.1296
      2 N          63.0173   82.2206   14.5677 N.ar    1  UNL1       -0.2293
      3 C          63.6144   81.0702   13.8127 C.ar    1  UNL1        0.1018
      4 C          63.8682   81.1911   12.3393 C.ar    1  UNL1        0.0398
      5 C          63.5249   82.4623   11.6209 C.ar    1  UNL1        0.0852
      6 N          63.6602   82.8712   10.1841 N.2     1  UNL1       -0.2455
      7 C          63.1467   84.2743   10.0510 C.2     1  UNL1        0.0777
      8 C          63.0329   85.1938    8.8714 C.2     1  UNL1        0.0185
      9 C          62.4664   86.5716    9.0465 C.2     1  UNL1       -0.0027
     10 C          62.0136   87.0298   10.4011 C.2     1  UNL1       -0.0213
     11 C          62.1275   86.1103   11.5807 C.3     1  UNL1        0.0540
     12 C          62.6940   84.7326   11.4057 C.2     1  UNL1        0.0040
     13 C          62.9277   83.6127   12.3759 C.ar    1  UNL1        0.0468
     14 N          62.0767   84.6423   14.6043 N.pl3   1  UNL1       -0.3181
     15 H          61.3397   85.1614   14.2085 H       1  UNL1        0.1482
     16 C          62.6025   85.0017   15.9624 C.3     1  UNL1        0.0882
     17 C          63.9225   85.7017   16.0944 C.3     1  UNL1        0.0212
     18 C          64.3297   87.8081   14.6288 C.3     1  UNL1        0.0001
     19 C          64.5514   86.3487   14.8961 C.3     1  UNL1        0.0017
@<TRIPOS>BOND
     1    18    19    1
     2    19    17    1
     3    17    16    1
     4    16    14    1
     5    14     1    1
     6     1     2   ar
     7     2     3   ar
     8     3     4   ar
     9     4     5   ar
    10     5     6    2
    11     6     7    1
    12     7     8    2
    13     8     9    1
    14     9    10    2
    15    10    11    1
    16    11    12    1
    17    12    13    2
    18    13     1   ar
    19    13     5   ar
    20    12     7    1
    21    14    15    1
@<TRIPOS>MOLECULE
*****
 19 21 0 0 0
SMALL
GASTEIGER

@<TRIPOS>ATOM
      1 C          62.1948   86.3842   11.5273 C.ar    1  UNL1        0.1296
      2 N          61.3952   85.7031   10.4563 N.ar    1  UNL1       -0.2293
      3 C          60.8734   86.4933    9.2930 C.ar    1  UNL1        0.1018
      4 C          61.1510   87.9644    9.2006 C.ar    1  UNL1        0.0398
      5 C          61.9506   88.6455   10.2716 C.ar    1  UNL1        0.0852
      6 N          62.3808   90.0714   10.4495 N.2     1  UNL1       -0.2455
      7 C          63.1686   90.1625   11.7227 C.2     1  UNL1        0.0777
      8 C          63.8416   91.3157   12.4062 C.2     1  UNL1        0.0185
      9 C          64.5713   91.0993   13.6987 C.2     1  UNL1       -0.0027
     10 C          64.6279   89.7297   14.3078 C.2     1  UNL1       -0.0213
     11 C          63.9549   88.5765   13.6243 C.3     1  UNL1        0.0540
     12 C          63.2252   88.7929   12.3318 C.2     1  UNL1        0.0040
     13 C          62.4724   87.8553   11.4349 C.ar    1  UNL1        0.0468
     14 N          62.7166   85.5940   12.6907 N.pl3   1  UNL1       -0.3181
     15 H          63.0451   86.0590   13.4939 H       1  UNL1        0.1482
     16 C          62.7381   84.0953   12.6301 C.3     1  UNL1        0.0882
     17 C          64.0470   83.3666   12.5546 C.3     1  UNL1        0.0212
     18 C          63.9844   83.3115    9.9578 C.3     1  UNL1        0.0001
     19 C          64.4949   82.7621   11.2569 C.3     1  UNL1        0.0017
@<TRIPOS>BOND
     1    18    19    1
     2    19    17    1
     3    17    16    1
     4    16    14    1
     5    14     1    1
     6     1     2   ar
     7     2     3   ar
     8     3     4   ar
     9     4     5   ar
    10     5     6    2
    11     6     7    1
    12     7     8    2
    13     8     9    1
    14     9    10    2
    15    10    11    1
    16    11    12    1
    17    12    13    2
    18    13     1   ar
    19    13     5   ar
    20    12     7    1
    21    14    15    1
@<TRIPOS>MOLECULE
*****
 19 21 0 0 0
SMALL
GASTEIGER

@<TRIPOS>ATOM
      1 C          62.8008   87.2765   12.1107 C.ar    1  UNL1        0.1296
      2 N          63.6372   87.9219   13.1756 N.ar    1  UNL1       -0.2293
      3 C          63.7568   89.4160   13.2326 C.ar    1  UNL1        0.1018
      4 C          63.0401   90.2648   12.2248 C.ar    1  UNL1        0.0398
      5 C          62.2038   89.6195   11.1598 C.ar    1  UNL1        0.0852
      6 N          61.3880   90.1929   10.0393 N.2     1  UNL1       -0.2455
      7 C          60.7641   89.0532    9.2897 C.2     1  UNL1        0.0777
      8 C          59.8598   89.0138    8.0936 C.2     1  UNL1        0.0185
      9 C          59.3858   87.6967    7.5548 C.2     1  UNL1       -0.0027
     10 C          59.8161   86.4188    8.2121 C.2     1  UNL1       -0.0213
     11 C          60.7203   86.4582    9.4082 C.3     1  UNL1        0.0540
     12 C          61.1943   87.7753    9.9470 C.2     1  UNL1        0.0040
     13 C          62.0841   88.1253   11.1028 C.ar    1  UNL1        0.0468
     14 N          62.6811   85.7823   12.0537 N.pl3   1  UNL1       -0.3181
     15 H          62.1761   85.3564   11.3238 H       1  UNL1        0.1482
     16 C          63.3311   84.9371   13.1088 C.3     1  UNL1        0.0882
     17 C          64.0490   83.6777   12.7238 C.3     1  UNL1        0.0212
     18 C          64.2071   83.0522   10.2070 C.3     1  UNL1        0.0001
     19 C          63.5715   82.8700   11.5535 C.3     1  UNL1        0.0017
@<TRIPOS>BOND
     1    18    19    1
     2    19    17    1
     3    17    16    1
     4    16    14    1
     5    14     1    1
     6     1     2   ar
     7     2     3   ar
     8     3     4   ar
     9     4     5   ar
    10     5     6    2
    11     6     7    1
    12     7     8    2
    13     8     9    1
    14     9    10    2
    15    10    11    1
    16    11    12    1
    17    12    13    2
    18    13     1   ar
    19    13     5   ar
    20    12     7    1
    21    14    15    1
@<TRIPOS>MOLECULE
*****
 19 21 0 0 0
SMALL
GASTEIGER

@<TRIPOS>ATOM
      1 C          63.3016   89.4650   13.0014 C.ar    1  UNL1        0.1296
      2 N          62.4077   88.8324   11.9763 N.ar    1  UNL1       -0.2293
      3 C          62.2826   89.4424   10.6116 C.ar    1  UNL1        0.1018
      4 C          63.0513   90.6848   10.2721 C.ar    1  UNL1        0.0398
      5 C          63.9452   91.3174   11.2972 C.ar    1  UNL1        0.0852
      6 N          64.8195   92.5354   11.2520 N.2     1  UNL1       -0.2455
      7 C          65.4850   92.6782   12.5886 C.2     1  UNL1        0.0777
      8 C          66.4527   93.6911   13.1249 C.2     1  UNL1        0.0185
      9 C          66.9574   93.5742   14.5326 C.2     1  UNL1       -0.0027
     10 C          66.4944   92.4444   15.4039 C.2     1  UNL1       -0.0213
     11 C          65.5267   91.4316   14.8677 C.3     1  UNL1        0.0540
     12 C          65.0220   91.5485   13.4600 C.2     1  UNL1        0.0040
     13 C          64.0704   90.7074   12.6619 C.ar    1  UNL1        0.0468
     14 N          63.4268   88.8550   14.3661 N.pl3   1  UNL1       -0.3181
     15 H          62.7713   89.0768   15.0665 H       1  UNL1        0.1482
     16 C          64.5505   87.9070   14.6637 C.3     1  UNL1        0.0882
     17 C          64.2526   86.4887   15.0507 C.3     1  UNL1        0.0212
     18 C          64.5699   84.0538   14.2019 C.3     1  UNL1        0.0001
     19 C          64.0566   85.4471   13.9893 C.3     1  UNL1        0.0017
@<TRIPOS>BOND
     1    18    19    1
     2    19    17    1
     3    17    16    1
     4    16    14    1
     5    14     1    1
     6     1     2   ar
     7     2     3   ar
     8     3     4   ar
     9     4     5   ar
    10     5     6    2
    11     6     7    1
    12     7     8    2
    13     8     9    1
    14     9    10    2
    15    10    11    1
    16    11    12    1
    17    12    13    2
    18    13     1   ar
    19    13     5   ar
    20    12     7    1
    21    14    15    1
@<TRIPOS>MOLECULE
*****
 19 21 0 0 0
SMALL
GASTEIGER

@<TRIPOS>ATOM
      1 C          61.3695   87.0996   10.9177 C.ar    1  UNL1        0.1296
      2 N          60.4356   86.7784    9.7887 N.ar    1  UNL1       -0.2293
      3 C          60.0739   87.8377    8.7902 C.ar    1  UNL1        0.1018
      4 C          60.6461   89.2181    8.9206 C.ar    1  UNL1        0.0398
      5 C          61.5801   89.5392   10.0496 C.ar    1  UNL1        0.0852
      6 N          62.2954   90.8008   10.4326 N.2     1  UNL1       -0.2455
      7 C          63.0991   90.5213   11.6678 C.2     1  UNL1        0.0777
      8 C          64.0018   91.3875   12.4953 C.2     1  UNL1        0.0185
      9 C          64.6859   90.8194   13.7033 C.2     1  UNL1       -0.0027
     10 C          64.4674   89.3850   14.0837 C.2     1  UNL1       -0.0213
     11 C          63.5647   88.5187   13.2562 C.3     1  UNL1        0.0540
     12 C          62.8806   89.0869   12.0483 C.2     1  UNL1        0.0040
     13 C          61.9418   88.4799   11.0481 C.ar    1  UNL1        0.0468
     14 N          61.7312   86.0402   11.9163 N.pl3   1  UNL1       -0.3181
     15 H          61.2821   86.0153   12.7921 H       1  UNL1        0.1482
     16 C          62.7772   85.0188   11.5805 C.3     1  UNL1        0.0882
     17 C          63.2770   84.0812   12.6393 C.3     1  UNL1        0.0212
     18 C          64.6472   85.1678   14.5608 C.3     1  UNL1        0.0001
     19 C          63.3777   84.5428   14.0629 C.3     1  UNL1        0.0017
@<TRIPOS>BOND
     1    18    19    1
     2    19    17    1
     3    17    16    1
     4    16    14    1
     5    14     1    1
     6     1     2   ar
     7     2     3   ar
     8     3     4   ar
     9     4     5   ar
    10     5     6    2
    11     6     7    1
    12     7     8    2
    13     8     9    1
    14     9    10    2
    15    10    11    1
    16    11    12    1
    17    12    13    2
    18    13     1   ar
    19    13     5   ar
    20    12     7    1
    21    14    15    1
@<TRIPOS>MOLECULE
*****
 19 21 0 0 0
SMALL
GASTEIGER

@<TRIPOS>ATOM
      1 C          63.0309   86.5490   12.2245 C.ar    1  UNL1        0.1296
      2 N          63.3555   87.9280   12.7174 N.ar    1  UNL1       -0.2293
      3 C          64.0593   88.1092   14.0295 C.ar    1  UNL1        0.1018
      4 C          64.4386   86.9114   14.8488 C.ar    1  UNL1        0.0398
      5 C          64.1140   85.5323   14.3560 C.ar    1  UNL1        0.0852
      6 N          64.3615   84.1733   14.9407 N.2     1  UNL1       -0.2455
      7 C          63.8106   83.1522   13.9899 C.2     1  UNL1        0.0777
      8 C          63.7684   81.6537   14.0402 C.2     1  UNL1        0.0185
      9 C          63.1382   80.8831   12.9182 C.2     1  UNL1       -0.0027
     10 C          62.5503   81.6110   11.7458 C.2     1  UNL1       -0.0213
     11 C          62.5924   83.1096   11.6955 C.3     1  UNL1        0.0540
     12 C          63.2226   83.8802   12.8176 C.2     1  UNL1        0.0040
     13 C          63.4101   85.3511   13.0438 C.ar    1  UNL1        0.0468
     14 N          62.3270   86.3678   10.9123 N.pl3   1  UNL1       -0.3181
     15 H          62.2960   85.4796   10.4888 H       1  UNL1        0.1482
     16 C          61.6703   87.5401   10.2454 C.3     1  UNL1        0.0882
     17 C          60.2080   87.4924    9.9147 C.3     1  UNL1        0.0212
     18 C          60.1785   86.0447    7.7575 C.3     1  UNL1        0.0001
     19 C          59.7662   87.2832    8.4966 C.3     1  UNL1        0.0017
@<TRIPOS>BOND
     1    18    19    1
     2    19    17    1
     3    17    16    1
     4    16    14    1
     5    14     1    1
     6     1     2   ar
     7     2     3   ar
     8     3     4   ar
     9     4     5   ar
    10     5     6    2
    11     6     7    1
    12     7     8    2
    13     8     9    1
    14     9    10    2
    15    10    11    1
    16    11    12    1
    17    12    13    2
    18    13     1   ar
    19    13     5   ar
    20    12     7    1
    21    14    15    1
@<TRIPOS>MOLECULE
*****
 19 21 0 0 0
SMALL
GASTEIGER

@<TRIPOS>ATOM
      1 C          62.7433   86.0265   12.1384 C.ar    1  UNL1        0.1296
      2 N          62.0312   85.1630   11.1397 N.ar    1  UNL1       -0.2293
      3 C          61.4007   85.7821    9.9276 C.ar    1  UNL1        0.1018
      4 C          61.4822   87.2646    9.7142 C.ar    1  UNL1        0.0398
      5 C          62.1944   88.1280   10.7129 C.ar    1  UNL1        0.0852
      6 N          62.4353   89.6074   10.7696 N.2     1  UNL1       -0.2455
      7 C          63.2148   89.9027   12.0167 C.2     1  UNL1        0.0777
      8 C          63.7364   91.1850   12.5943 C.2     1  UNL1        0.0185
      9 C          64.4988   91.1703   13.8859 C.2     1  UNL1       -0.0027
     10 C          64.7396   89.8734   14.6000 C.2     1  UNL1       -0.0213
     11 C          64.2180   88.5911   14.0225 C.3     1  UNL1        0.0540
     12 C          63.4556   88.6058   12.7308 C.2     1  UNL1        0.0040
     13 C          62.8249   87.5090   11.9250 C.ar    1  UNL1        0.0468
     14 N          63.3739   85.4073   13.3505 N.pl3   1  UNL1       -0.3181
     15 H          64.2835   85.6699   13.6207 H       1  UNL1        0.1482
     16 C          62.6186   84.3881   14.1510 C.3     1  UNL1        0.0882
     17 C          62.4893   84.5473   15.6369 C.3     1  UNL1        0.0212
     18 C          62.6886   86.3328   17.5137 C.3     1  UNL1        0.0001
     19 C          63.2869   85.5981   16.3508 C.3     1  UNL1        0.0017
@<TRIPOS>BOND
     1    18    19    1
     2    19    17    1
     3    17    16    1
     4    16    14    1
     5    14     1    1
     6     1     2   ar
     7     2     3   ar
     8     3     4   ar
     9     4     5   ar
    10     5     6    2
    11     6     7    1
    12     7     8    2
    13     8     9    1
    14     9    10    2
    15    10    11    1
    16    11    12    1
    17    12    13    2
    18    13     1   ar
    19    13     5   ar
    20    12     7    1
    21    14    15    1
@<TRIPOS>MOLECULE
*****
 19 21 0 0 0
SMALL
GASTEIGER

@<TRIPOS>ATOM
      1 C          63.7866   88.5694   13.3090 C.ar    1  UNL1        0.1296
      2 N          64.6063   89.5065   14.1457 N.ar    1  UNL1       -0.2293
      3 C          64.6737   90.9629   13.7931 C.ar    1  UNL1        0.1018
      4 C          63.9212   91.4822   12.6039 C.ar    1  UNL1        0.0398
      5 C          63.1015   90.5452   11.7673 C.ar    1  UNL1        0.0852
      6 N          62.2590   90.7658   10.5460 N.2     1  UNL1       -0.2455
      7 C          61.6710   89.4458   10.1438 C.2     1  UNL1        0.0777
      8 C          60.7613   89.0537    9.0175 C.2     1  UNL1        0.0185
      9 C          60.3306   87.6251    8.8639 C.2     1  UNL1       -0.0027
     10 C          60.8097   86.5886    9.8366 C.2     1  UNL1       -0.0213
     11 C          61.7194   86.9807   10.9629 C.3     1  UNL1        0.0540
     12 C          62.1501   88.4093   11.1165 C.2     1  UNL1        0.0040
     13 C          63.0341   89.0887   12.1199 C.ar    1  UNL1        0.0468
     14 N          63.7192   87.1129   13.6617 N.pl3   1  UNL1       -0.3181
     15 H          63.1844   86.4971   13.1103 H       1  UNL1        0.1482
     16 C          64.4668   86.5947   14.8544 C.3     1  UNL1        0.0882
     17 C          64.4105   85.1360   15.1990 C.3     1  UNL1        0.0212
     18 C          63.8709   83.2241   13.5246 C.3     1  UNL1        0.0001
     19 C          64.8708   84.1120   14.2042 C.3     1  UNL1        0.0017
@<TRIPOS>BOND
     1    18    19    1
     2    19    17    1
     3    17    16    1
     4    16    14    1
     5    14     1    1
     6     1     2   ar
     7     2     3   ar
     8     3     4   ar
     9     4     5   ar
    10     5     6    2
    11     6     7    1
    12     7     8    2
    13     8     9    1
    14     9    10    2
    15    10    11    1
    16    11    12    1
    17    12    13    2
    18    13     1   ar
    19    13     5   ar
    20    12     7    1
    21    14    15    1
