@<TRIPOS>MOLECULE
*****
 33 37 0 0 0
SMALL
GASTEIGER

@<TRIPOS>ATOM
      1 N          63.2581   89.8995   13.2374 N.3     1  UNL1       -0.2679
      2 C          64.0498   90.9818   12.5653 C.3     1  UNL1        0.0978
      3 C          63.8962   91.2188   11.0921 C.3     1  UNL1        0.0224
      4 C          64.6878   92.3012   10.4200 C.3     1  UNL1        0.0065
      5 C          65.6331   93.1466   11.2210 C.3     1  UNL1        0.0277
      6 C          65.7867   92.9096   12.6942 C.ar    1  UNL1       -0.0073
      7 C          66.7321   93.7550   13.4953 C.ar    1  UNL1       -0.0015
      8 C          66.8857   93.5181   14.9684 C.ar    1  UNL1        0.0203
      9 C          66.0940   92.4357   15.6405 C.ar    1  UNL1        0.0985
     10 N          65.1487   91.5903   14.8395 N.ar    1  UNL1       -0.2471
     11 C          64.9951   91.8272   13.3663 C.ar    1  UNL1        0.0695
     12 C          63.9183   88.9993   14.2392 C.3     1  UNL1        0.0738
     13 C          64.2267   87.5759   13.8800 C.3     1  UNL1        0.0347
     14 C          64.2483   86.5211   14.9462 C.3     1  UNL1        0.0736
     15 C          62.6948   80.8801   13.6172 C.3     1  UNL1        0.0897
     16 N          63.0832   82.2904   13.9494 N.3     1  UNL1       -0.2691
     17 C          64.2001   82.9566   13.2020 C.3     1  UNL1        0.0897
     18 C          64.5884   84.3669   13.5342 C.3     1  UNL1        0.0897
     19 N          63.8599   85.1109   14.6139 N.3     1  UNL1       -0.2703
     20 C          62.7430   84.4445   15.3614 C.3     1  UNL1        0.0897
     21 C          62.3547   83.0343   15.0292 C.3     1  UNL1        0.0897
     22 C          61.8062   89.7173   12.9077 C.3     1  UNL1        0.0888
     23 C          61.4064   89.0002   11.6523 C.3     1  UNL1        0.0782
     24 C          62.2451   87.8691   11.1352 C.3     1  UNL1        0.0434
     25 C          61.8453   87.1521    9.8798 C.ar    1  UNL1       -0.0234
     26 C          62.6838   86.0210    9.3626 C.ar    1  UNL1       -0.0045
     27 C          62.2840   85.3039    8.1073 C.ar    1  UNL1       -0.0003
     28 C          61.0457   85.7179    7.3690 C.ar    1  UNL1       -0.0003
     29 C          60.2070   86.8490    7.8862 C.ar    1  UNL1       -0.0032
     30 C          60.6068   87.5661    9.1416 C.ar    1  UNL1       -0.0101
     31 C          59.7682   88.6971    9.6587 C.3     1  UNL1        0.0989
     32 N          60.1680   89.4142   10.9141 N.3     1  UNL1       -0.2674
     33 C          59.3295   90.5452   11.4312 C.3     1  UNL1        0.0899
@<TRIPOS>BOND
     1    15    16    1
     2    16    17    1
     3    17    18    1
     4    18    19    1
     5    19    14    1
     6    14    13    1
     7    13    12    1
     8    12     1    1
     9     1    22    1
    10    23    22    1
    11    23    24    1
    12    24    25    1
    13    25    26   ar
    14    26    27   ar
    15    27    28   ar
    16    28    29   ar
    17    29    30   ar
    18    30    31    1
    19    31    32    1
    20    32    33    1
    21     2     1    1
    22     2     3    1
    23     3     4    1
    24     4     5    1
    25     5     6    1
    26     6     7   ar
    27     7     8   ar
    28     8     9   ar
    29     9    10   ar
    30    10    11   ar
    31    19    20    1
    32    20    21    1
    33    21    16    1
    34    32    23    1
    35    11     2    1
    36    30    25   ar
    37    11     6   ar
@<TRIPOS>MOLECULE
*****
 33 37 0 0 0
SMALL
GASTEIGER

@<TRIPOS>ATOM
      1 N          63.4387   89.6586   13.2369 N.3     1  UNL1       -0.2679
      2 C          64.3455   90.7638   13.6910 C.3     1  UNL1        0.0978
      3 C          64.7271   90.8742   15.1374 C.3     1  UNL1        0.0224
      4 C          65.6339   91.9794   15.5916 C.3     1  UNL1        0.0065
      5 C          66.1591   92.9742   14.5994 C.3     1  UNL1        0.0277
      6 C          65.7774   92.8638   13.1530 C.ar    1  UNL1       -0.0073
      7 C          66.3026   93.8586   12.1606 C.ar    1  UNL1       -0.0015
      8 C          65.9210   93.7482   10.7142 C.ar    1  UNL1        0.0203
      9 C          65.0142   92.6430   10.2601 C.ar    1  UNL1        0.0985
     10 N          64.4890   91.6482   11.2523 N.ar    1  UNL1       -0.2471
     11 C          64.8706   91.7586   12.6988 C.ar    1  UNL1        0.0695
     12 C          63.8720   88.2291   13.3733 C.3     1  UNL1        0.0738
     13 C          64.2647   87.6894   14.7166 C.3     1  UNL1        0.0347
     14 C          64.9331   86.3506   14.8208 C.3     1  UNL1        0.0736
     15 C          61.7379   81.3332   14.0350 C.3     1  UNL1        0.0897
     16 N          62.5367   82.5876   14.2315 N.3     1  UNL1       -0.2691
     17 C          62.2067   83.5177   15.3611 C.3     1  UNL1        0.0897
     18 C          63.0055   84.7720   15.5575 C.3     1  UNL1        0.0897
     19 N          64.1343   85.0963   14.6243 N.3     1  UNL1       -0.2703
     20 C          64.4642   84.1661   13.4947 C.3     1  UNL1        0.0897
     21 C          63.6654   82.9118   13.2983 C.3     1  UNL1        0.0897
     22 C          62.0985   89.9830   12.6463 C.3     1  UNL1        0.0888
     23 C          61.5740   89.1819   11.4917 C.3     1  UNL1        0.0782
     24 C          62.4141   88.0944   10.8902 C.3     1  UNL1        0.0434
     25 C          61.8896   87.2934    9.7355 C.ar    1  UNL1       -0.0234
     26 C          62.7296   86.2059    9.1340 C.ar    1  UNL1       -0.0045
     27 C          62.2051   85.4049    7.9794 C.ar    1  UNL1       -0.0003
     28 C          60.8406   85.6912    7.4263 C.ar    1  UNL1       -0.0003
     29 C          60.0005   86.7787    8.0278 C.ar    1  UNL1       -0.0032
     30 C          60.5250   87.5798    9.1824 C.ar    1  UNL1       -0.0101
     31 C          59.6850   88.6672    9.7839 C.3     1  UNL1        0.0989
     32 N          60.2095   89.4683   10.9385 N.3     1  UNL1       -0.2674
     33 C          59.3695   90.5557   11.5400 C.3     1  UNL1        0.0899
@<TRIPOS>BOND
     1    15    16    1
     2    16    17    1
     3    17    18    1
     4    18    19    1
     5    19    14    1
     6    14    13    1
     7    13    12    1
     8    12     1    1
     9     1    22    1
    10    23    22    1
    11    23    24    1
    12    24    25    1
    13    25    26   ar
    14    26    27   ar
    15    27    28   ar
    16    28    29   ar
    17    29    30   ar
    18    30    31    1
    19    31    32    1
    20    32    33    1
    21     2     1    1
    22     2     3    1
    23     3     4    1
    24     4     5    1
    25     5     6    1
    26     6     7   ar
    27     7     8   ar
    28     8     9   ar
    29     9    10   ar
    30    10    11   ar
    31    19    20    1
    32    20    21    1
    33    21    16    1
    34    32    23    1
    35    11     2    1
    36    30    25   ar
    37    11     6   ar
@<TRIPOS>MOLECULE
*****
 33 37 0 0 0
SMALL
GASTEIGER

@<TRIPOS>ATOM
      1 N          63.4608   88.7210   14.0446 N.3     1  UNL1       -0.2679
      2 C          63.2481   89.3072   12.6804 C.3     1  UNL1        0.0978
      3 C          63.8264   90.6492   12.3423 C.3     1  UNL1        0.0224
      4 C          63.6137   91.2354   10.9780 C.3     1  UNL1        0.0065
      5 C          62.8228   90.4796    9.9519 C.3     1  UNL1        0.0277
      6 C          62.2444   89.1375   10.2900 C.ar    1  UNL1       -0.0073
      7 C          61.4534   88.3816    9.2639 C.ar    1  UNL1       -0.0015
      8 C          60.8751   87.0395    9.6020 C.ar    1  UNL1        0.0203
      9 C          61.0878   86.4533   10.9662 C.ar    1  UNL1        0.0985
     10 N          61.8788   87.2092   11.9924 N.ar    1  UNL1       -0.2471
     11 C          62.4571   88.5513   11.6543 C.ar    1  UNL1        0.0695
     12 C          62.7589   89.3104   15.2320 C.3     1  UNL1        0.0738
     13 C          63.5304   90.1135   16.2369 C.3     1  UNL1        0.0347
     14 C          63.9372   91.5218   15.9186 C.3     1  UNL1        0.0736
     15 C          69.6542   92.7651   14.5882 C.3     1  UNL1        0.0897
     16 N          68.2249   92.4543   14.9208 N.3     1  UNL1       -0.2691
     17 C          67.4255   91.5539   14.0263 C.3     1  UNL1        0.0897
     18 C          65.9962   91.2431   14.3589 C.3     1  UNL1        0.0897
     19 N          65.3664   91.8326   15.5860 N.3     1  UNL1       -0.2703
     20 C          66.1659   92.7330   16.4806 C.3     1  UNL1        0.0897
     21 C          67.5951   93.0438   16.1479 C.3     1  UNL1        0.0897
     22 C          64.3754   87.5453   14.2215 C.3     1  UNL1        0.0888
     23 C          63.8106   86.1566   14.2713 C.3     1  UNL1        0.0782
     24 C          63.7949   85.3086   13.0340 C.3     1  UNL1        0.0434
     25 C          63.2302   83.9198   13.0838 C.ar    1  UNL1       -0.0234
     26 C          63.2144   83.0718   11.8466 C.ar    1  UNL1       -0.0045
     27 C          62.6497   81.6831   11.8963 C.ar    1  UNL1       -0.0003
     28 C          62.1007   81.1423   13.1832 C.ar    1  UNL1       -0.0003
     29 C          62.1165   81.9903   14.4205 C.ar    1  UNL1       -0.0032
     30 C          62.6812   83.3791   14.3708 C.ar    1  UNL1       -0.0101
     31 C          62.6970   84.2271   15.6079 C.3     1  UNL1        0.0989
     32 N          63.2617   85.6158   15.5582 N.3     1  UNL1       -0.2674
     33 C          63.2774   86.4638   16.7953 C.3     1  UNL1        0.0899
@<TRIPOS>BOND
     1    15    16    1
     2    16    17    1
     3    17    18    1
     4    18    19    1
     5    19    14    1
     6    14    13    1
     7    13    12    1
     8    12     1    1
     9     1    22    1
    10    23    22    1
    11    23    24    1
    12    24    25    1
    13    25    26   ar
    14    26    27   ar
    15    27    28   ar
    16    28    29   ar
    17    29    30   ar
    18    30    31    1
    19    31    32    1
    20    32    33    1
    21     2     1    1
    22     2     3    1
    23     3     4    1
    24     4     5    1
    25     5     6    1
    26     6     7   ar
    27     7     8   ar
    28     8     9   ar
    29     9    10   ar
    30    10    11   ar
    31    19    20    1
    32    20    21    1
    33    21    16    1
    34    32    23    1
    35    11     2    1
    36    30    25   ar
    37    11     6   ar
@<TRIPOS>MOLECULE
*****
 33 37 0 0 0
SMALL
GASTEIGER

@<TRIPOS>ATOM
      1 N          63.4206   85.1104   12.6757 N.3     1  UNL1       -0.2679
      2 C          63.5125   83.7899   11.9701 C.3     1  UNL1        0.0978
      3 C          64.2135   83.6934   10.6475 C.3     1  UNL1        0.0224
      4 C          64.3054   82.3729    9.9420 C.3     1  UNL1        0.0065
      5 C          63.6964   81.1489   10.5590 C.3     1  UNL1        0.0277
      6 C          62.9954   81.2454   11.8816 C.ar    1  UNL1       -0.0073
      7 C          62.3863   80.0213   12.4987 C.ar    1  UNL1       -0.0015
      8 C          61.6854   80.1177   13.8213 C.ar    1  UNL1        0.0203
      9 C          61.5935   81.4383   14.5268 C.ar    1  UNL1        0.0985
     10 N          62.2025   82.6623   13.9098 N.ar    1  UNL1       -0.2471
     11 C          62.9035   82.5659   12.5871 C.ar    1  UNL1        0.0695
     12 C          62.7482   86.2727   12.0072 C.3     1  UNL1        0.0738
     13 C          61.3764   86.1107   11.4224 C.3     1  UNL1        0.0347
     14 C          61.2143   85.8172    9.9603 C.3     1  UNL1        0.0736
     15 C          58.8136   89.9397    6.3214 C.3     1  UNL1        0.0897
     16 N          59.4138   88.9091    7.2311 N.3     1  UNL1       -0.2691
     17 C          59.2029   87.4501    6.9540 C.3     1  UNL1        0.0897
     18 C          59.8031   86.4194    7.8638 C.3     1  UNL1        0.0897
     19 N          60.6142   86.8478    9.0506 N.3     1  UNL1       -0.2703
     20 C          60.8250   88.3069    9.3277 C.3     1  UNL1        0.0897
     21 C          60.2249   89.3375    8.4180 C.3     1  UNL1        0.0897
     22 C          64.0011   85.2686   14.0497 C.3     1  UNL1        0.0888
     23 C          63.8857   86.5814   14.7661 C.3     1  UNL1        0.0782
     24 C          64.4916   87.8171   14.1695 C.3     1  UNL1        0.0434
     25 C          64.3762   89.1300   14.8858 C.ar    1  UNL1       -0.0234
     26 C          64.9821   90.3657   14.2893 C.ar    1  UNL1       -0.0045
     27 C          64.8667   91.6785   15.0057 C.ar    1  UNL1       -0.0003
     28 C          64.1455   91.7556   16.3186 C.ar    1  UNL1       -0.0003
     29 C          63.5395   90.5199   16.9152 C.ar    1  UNL1       -0.0032
     30 C          63.6549   89.2071   16.1988 C.ar    1  UNL1       -0.0101
     31 C          63.0490   87.9714   16.7953 C.3     1  UNL1        0.0989
     32 N          63.1644   86.6585   16.0790 N.3     1  UNL1       -0.2674
     33 C          62.5586   85.4228   16.6755 C.3     1  UNL1        0.0899
@<TRIPOS>BOND
     1    15    16    1
     2    16    17    1
     3    17    18    1
     4    18    19    1
     5    19    14    1
     6    14    13    1
     7    13    12    1
     8    12     1    1
     9     1    22    1
    10    23    22    1
    11    23    24    1
    12    24    25    1
    13    25    26   ar
    14    26    27   ar
    15    27    28   ar
    16    28    29   ar
    17    29    30   ar
    18    30    31    1
    19    31    32    1
    20    32    33    1
    21     2     1    1
    22     2     3    1
    23     3     4    1
    24     4     5    1
    25     5     6    1
    26     6     7   ar
    27     7     8   ar
    28     8     9   ar
    29     9    10   ar
    30    10    11   ar
    31    19    20    1
    32    20    21    1
    33    21    16    1
    34    32    23    1
    35    11     2    1
    36    30    25   ar
    37    11     6   ar
@<TRIPOS>MOLECULE
*****
 33 37 0 0 0
SMALL
GASTEIGER

@<TRIPOS>ATOM
      1 N          63.6857   89.8737   13.3345 N.3     1  UNL1       -0.2679
      2 C          64.4010   91.0569   12.7529 C.3     1  UNL1        0.0978
      3 C          64.1861   91.4316   11.3164 C.3     1  UNL1        0.0224
      4 C          64.9014   92.6148   10.7348 C.3     1  UNL1        0.0065
      5 C          65.8316   93.4234   11.5897 C.3     1  UNL1        0.0277
      6 C          66.0465   93.0488   13.0261 C.ar    1  UNL1       -0.0073
      7 C          66.9768   93.8574   13.8810 C.ar    1  UNL1       -0.0015
      8 C          67.1918   93.4827   15.3174 C.ar    1  UNL1        0.0203
      9 C          66.4764   92.2995   15.8991 C.ar    1  UNL1        0.0985
     10 N          65.5462   91.4909   15.0442 N.ar    1  UNL1       -0.2471
     11 C          65.3312   91.8655   13.6077 C.ar    1  UNL1        0.0695
     12 C          62.3568   89.4537   12.7799 C.3     1  UNL1        0.0738
     13 C          62.2673   88.8899   11.3927 C.3     1  UNL1        0.0347
     14 C          61.1393   87.9710   11.0279 C.3     1  UNL1        0.0736
     15 C          61.5670   84.4786    6.1679 C.3     1  UNL1        0.0897
     16 N          61.4600   85.3517    7.3829 N.3     1  UNL1       -0.2691
     17 C          60.1947   86.1109    7.6519 C.3     1  UNL1        0.0897
     18 C          60.0877   86.9841    8.8669 C.3     1  UNL1        0.0897
     19 N          61.2462   87.0979    9.8129 N.3     1  UNL1       -0.2703
     20 C          62.5116   86.3387    9.5439 C.3     1  UNL1        0.0897
     21 C          62.6185   85.4656    8.3289 C.3     1  UNL1        0.0897
     22 C          64.2992   89.1105   14.4707 C.3     1  UNL1        0.0888
     23 C          63.9250   87.6760   14.6994 C.3     1  UNL1        0.0782
     24 C          64.1365   86.6634   13.6131 C.3     1  UNL1        0.0434
     25 C          63.7622   85.2289   13.8418 C.ar    1  UNL1       -0.0234
     26 C          63.9737   84.2163   12.7556 C.ar    1  UNL1       -0.0045
     27 C          63.5995   82.7819   12.9843 C.ar    1  UNL1       -0.0003
     28 C          63.0137   82.3600   14.2991 C.ar    1  UNL1       -0.0003
     29 C          62.8022   83.3727   15.3854 C.ar    1  UNL1       -0.0032
     30 C          63.1765   84.8071   15.1567 C.ar    1  UNL1       -0.0101
     31 C          62.9650   85.8197   16.2429 C.3     1  UNL1        0.0989
     32 N          63.3393   87.2542   16.0142 N.3     1  UNL1       -0.2674
     33 C          63.1278   88.2668   17.1004 C.3     1  UNL1        0.0899
@<TRIPOS>BOND
     1    15    16    1
     2    16    17    1
     3    17    18    1
     4    18    19    1
     5    19    14    1
     6    14    13    1
     7    13    12    1
     8    12     1    1
     9     1    22    1
    10    23    22    1
    11    23    24    1
    12    24    25    1
    13    25    26   ar
    14    26    27   ar
    15    27    28   ar
    16    28    29   ar
    17    29    30   ar
    18    30    31    1
    19    31    32    1
    20    32    33    1
    21     2     1    1
    22     2     3    1
    23     3     4    1
    24     4     5    1
    25     5     6    1
    26     6     7   ar
    27     7     8   ar
    28     8     9   ar
    29     9    10   ar
    30    10    11   ar
    31    19    20    1
    32    20    21    1
    33    21    16    1
    34    32    23    1
    35    11     2    1
    36    30    25   ar
    37    11     6   ar
@<TRIPOS>MOLECULE
*****
 33 37 0 0 0
SMALL
GASTEIGER

@<TRIPOS>ATOM
      1 N          63.5231   89.0026   13.5370 N.3     1  UNL1       -0.2679
      2 C          63.0194   89.2265   12.1420 C.3     1  UNL1        0.0978
      3 C          63.0796   90.5963   11.5337 C.3     1  UNL1        0.0224
      4 C          62.5759   90.8203   10.1387 C.3     1  UNL1        0.0065
      5 C          62.0120   89.6745    9.3519 C.3     1  UNL1        0.0277
      6 C          61.9518   88.3047    9.9602 C.ar    1  UNL1       -0.0073
      7 C          61.3878   87.1588    9.1734 C.ar    1  UNL1       -0.0015
      8 C          61.3276   85.7890    9.7816 C.ar    1  UNL1        0.0203
      9 C          61.8313   85.5651   11.1766 C.ar    1  UNL1        0.0985
     10 N          62.3952   86.7109   11.9634 N.ar    1  UNL1       -0.2471
     11 C          62.4555   88.0807   11.3552 C.ar    1  UNL1        0.0695
     12 C          64.1781   87.7024   13.8982 C.3     1  UNL1        0.0738
     13 C          63.9974   87.1277   15.2720 C.3     1  UNL1        0.0347
     14 C          64.5312   85.7625   15.5900 C.3     1  UNL1        0.0736
     15 C          62.4694   80.9701   12.6265 C.3     1  UNL1        0.0897
     16 N          62.9849   82.1682   13.3674 N.3     1  UNL1       -0.2691
     17 C          64.2265   82.8650   12.8953 C.3     1  UNL1        0.0897
     18 C          64.7420   84.0631   13.6362 C.3     1  UNL1        0.0897
     19 N          64.0158   84.5644   14.8492 N.3     1  UNL1       -0.2703
     20 C          62.7741   83.8676   15.3213 C.3     1  UNL1        0.0897
     21 C          62.2587   82.6695   14.5804 C.3     1  UNL1        0.0897
     22 C          63.3719   90.0788   14.5708 C.3     1  UNL1        0.0888
     23 C          64.5565   90.9084   14.9686 C.3     1  UNL1        0.0782
     24 C          65.8112   90.8666   14.1475 C.3     1  UNL1        0.0434
     25 C          66.9959   91.6962   14.5454 C.ar    1  UNL1       -0.0234
     26 C          68.2505   91.6544   13.7243 C.ar    1  UNL1       -0.0045
     27 C          69.4351   92.4841   14.1221 C.ar    1  UNL1       -0.0003
     28 C          69.3652   93.3556   15.3410 C.ar    1  UNL1       -0.0003
     29 C          68.1105   93.3974   16.1621 C.ar    1  UNL1       -0.0032
     30 C          66.9258   92.5677   15.7643 C.ar    1  UNL1       -0.0101
     31 C          65.6712   92.6095   16.5853 C.3     1  UNL1        0.0989
     32 N          64.4866   91.7799   16.1875 N.3     1  UNL1       -0.2674
     33 C          63.2320   91.8217   17.0085 C.3     1  UNL1        0.0899
@<TRIPOS>BOND
     1    15    16    1
     2    16    17    1
     3    17    18    1
     4    18    19    1
     5    19    14    1
     6    14    13    1
     7    13    12    1
     8    12     1    1
     9     1    22    1
    10    23    22    1
    11    23    24    1
    12    24    25    1
    13    25    26   ar
    14    26    27   ar
    15    27    28   ar
    16    28    29   ar
    17    29    30   ar
    18    30    31    1
    19    31    32    1
    20    32    33    1
    21     2     1    1
    22     2     3    1
    23     3     4    1
    24     4     5    1
    25     5     6    1
    26     6     7   ar
    27     7     8   ar
    28     8     9   ar
    29     9    10   ar
    30    10    11   ar
    31    19    20    1
    32    20    21    1
    33    21    16    1
    34    32    23    1
    35    11     2    1
    36    30    25   ar
    37    11     6   ar
@<TRIPOS>MOLECULE
*****
 33 37 0 0 0
SMALL
GASTEIGER

@<TRIPOS>ATOM
      1 N          63.2398   88.2149   12.8100 N.3     1  UNL1       -0.2679
      2 C          62.6191   87.3004   11.7958 C.3     1  UNL1        0.0978
      3 C          62.9105   85.8296   11.8344 C.3     1  UNL1        0.0224
      4 C          62.2898   84.9151   10.8202 C.3     1  UNL1        0.0065
      5 C          61.3777   85.4716    9.7674 C.3     1  UNL1        0.0277
      6 C          61.0863   86.9424    9.7288 C.ar    1  UNL1       -0.0073
      7 C          60.1742   87.4990    8.6759 C.ar    1  UNL1       -0.0015
      8 C          59.8828   88.9698    8.6373 C.ar    1  UNL1        0.0203
      9 C          60.5035   89.8843    9.6515 C.ar    1  UNL1        0.0985
     10 N          61.4156   89.3278   10.7043 N.ar    1  UNL1       -0.2471
     11 C          61.7070   87.8569   10.7430 C.ar    1  UNL1        0.0695
     12 C          64.2154   87.6720   13.8116 C.3     1  UNL1        0.0738
     13 C          63.7329   87.2116   15.1552 C.3     1  UNL1        0.0347
     14 C          64.1807   85.8876   15.6996 C.3     1  UNL1        0.0736
     15 C          62.6959   80.8175   12.8553 C.3     1  UNL1        0.0897
     16 N          63.0671   82.0850   13.5664 N.3     1  UNL1       -0.2691
     17 C          64.3860   82.7428   13.2875 C.3     1  UNL1        0.0897
     18 C          64.7572   84.0104   13.9985 C.3     1  UNL1        0.0897
     19 N          63.8095   84.6201   14.9885 N.3     1  UNL1       -0.2703
     20 C          62.4906   83.9622   15.2675 C.3     1  UNL1        0.0897
     21 C          62.1194   82.6947   14.5564 C.3     1  UNL1        0.0897
     22 C          62.8848   89.6722   12.8225 C.3     1  UNL1        0.0888
     23 C          63.9482   90.7011   13.0685 C.3     1  UNL1        0.0782
     24 C          64.5893   90.8087   14.4204 C.3     1  UNL1        0.0434
     25 C          65.6527   91.8376   14.6664 C.ar    1  UNL1       -0.0234
     26 C          66.2938   91.9452   16.0181 C.ar    1  UNL1       -0.0045
     27 C          67.3572   92.9741   16.2641 C.ar    1  UNL1       -0.0003
     28 C          67.7795   93.8954   15.1583 C.ar    1  UNL1       -0.0003
     29 C          67.1384   93.7878   13.8065 C.ar    1  UNL1       -0.0032
     30 C          66.0750   92.7589   13.5605 C.ar    1  UNL1       -0.0101
     31 C          65.4339   92.6513   12.2087 C.3     1  UNL1        0.0989
     32 N          64.3705   91.6224   11.9627 N.3     1  UNL1       -0.2674
     33 C          63.7294   91.5148   10.6109 C.3     1  UNL1        0.0899
@<TRIPOS>BOND
     1    15    16    1
     2    16    17    1
     3    17    18    1
     4    18    19    1
     5    19    14    1
     6    14    13    1
     7    13    12    1
     8    12     1    1
     9     1    22    1
    10    23    22    1
    11    23    24    1
    12    24    25    1
    13    25    26   ar
    14    26    27   ar
    15    27    28   ar
    16    28    29   ar
    17    29    30   ar
    18    30    31    1
    19    31    32    1
    20    32    33    1
    21     2     1    1
    22     2     3    1
    23     3     4    1
    24     4     5    1
    25     5     6    1
    26     6     7   ar
    27     7     8   ar
    28     8     9   ar
    29     9    10   ar
    30    10    11   ar
    31    19    20    1
    32    20    21    1
    33    21    16    1
    34    32    23    1
    35    11     2    1
    36    30    25   ar
    37    11     6   ar
@<TRIPOS>MOLECULE
*****
 33 37 0 0 0
SMALL
GASTEIGER

@<TRIPOS>ATOM
      1 N          65.3437   92.2299   12.3222 N.3     1  UNL1       -0.2679
      2 C          66.3873   92.6138   11.3155 C.3     1  UNL1        0.0978
      3 C          67.3983   91.6034   10.8607 C.3     1  UNL1        0.0224
      4 C          68.4419   91.9873    9.8539 C.3     1  UNL1        0.0065
      5 C          68.4744   93.3817    9.3020 C.3     1  UNL1        0.0277
      6 C          67.4634   94.3921    9.7567 C.ar    1  UNL1       -0.0073
      7 C          67.4960   95.7865    9.2048 C.ar    1  UNL1       -0.0015
      8 C          66.4850   96.7969    9.6595 C.ar    1  UNL1        0.0203
      9 C          65.4414   96.4130   10.6663 C.ar    1  UNL1        0.0985
     10 N          65.4088   95.0187   11.2183 N.ar    1  UNL1       -0.2471
     11 C          66.4199   94.0082   10.7635 C.ar    1  UNL1        0.0695
     12 C          63.9225   92.0251   11.8884 C.3     1  UNL1        0.0738
     13 C          63.5677   90.8658   11.0049 C.3     1  UNL1        0.0347
     14 C          62.6941   89.7643   11.5278 C.3     1  UNL1        0.0736
     15 C          59.1080   86.7458    7.7822 C.3     1  UNL1        0.0897
     16 N          60.0045   87.5005    8.7186 N.3     1  UNL1       -0.2691
     17 C          60.8499   86.7570    9.7098 C.3     1  UNL1        0.0897
     18 C          61.7464   87.5116   10.6463 C.3     1  UNL1        0.0897
     19 N          61.7976   89.0097   10.5914 N.3     1  UNL1       -0.2703
     20 C          60.9522   89.7532    9.6001 C.3     1  UNL1        0.0897
     21 C          60.0557   88.9986    8.6638 C.3     1  UNL1        0.0897
     22 C          65.7213   92.0509   13.7628 C.3     1  UNL1        0.0888
     23 C          65.0257   91.0168   14.5975 C.3     1  UNL1        0.0782
     24 C          65.0670   89.5733   14.1913 C.3     1  UNL1        0.0434
     25 C          64.3714   88.5392   15.0261 C.ar    1  UNL1       -0.0234
     26 C          64.4126   87.0958   14.6200 C.ar    1  UNL1       -0.0045
     27 C          63.7170   86.0617   15.4547 C.ar    1  UNL1       -0.0003
     28 C          62.9803   86.4709   16.6955 C.ar    1  UNL1       -0.0003
     29 C          62.9391   87.9143   17.1017 C.ar    1  UNL1       -0.0032
     30 C          63.6346   88.9485   16.2669 C.ar    1  UNL1       -0.0101
     31 C          63.5934   90.3918   16.6731 C.3     1  UNL1        0.0989
     32 N          64.2890   91.4260   15.8383 N.3     1  UNL1       -0.2674
     33 C          64.2478   92.8693   16.2444 C.3     1  UNL1        0.0899
@<TRIPOS>BOND
     1    15    16    1
     2    16    17    1
     3    17    18    1
     4    18    19    1
     5    19    14    1
     6    14    13    1
     7    13    12    1
     8    12     1    1
     9     1    22    1
    10    23    22    1
    11    23    24    1
    12    24    25    1
    13    25    26   ar
    14    26    27   ar
    15    27    28   ar
    16    28    29   ar
    17    29    30   ar
    18    30    31    1
    19    31    32    1
    20    32    33    1
    21     2     1    1
    22     2     3    1
    23     3     4    1
    24     4     5    1
    25     5     6    1
    26     6     7   ar
    27     7     8   ar
    28     8     9   ar
    29     9    10   ar
    30    10    11   ar
    31    19    20    1
    32    20    21    1
    33    21    16    1
    34    32    23    1
    35    11     2    1
    36    30    25   ar
    37    11     6   ar
@<TRIPOS>MOLECULE
*****
 33 37 0 0 0
SMALL
GASTEIGER

@<TRIPOS>ATOM
      1 N          61.9057   87.8576   11.4005 N.3     1  UNL1       -0.2679
      2 C          61.0971   87.5513   10.1748 C.3     1  UNL1        0.0978
      3 C          59.7979   88.2621    9.9365 C.3     1  UNL1        0.0224
      4 C          58.9892   87.9558    8.7108 C.3     1  UNL1        0.0065
      5 C          59.4798   86.9388    7.7234 C.3     1  UNL1        0.0277
      6 C          60.7790   86.2280    7.9618 C.ar    1  UNL1       -0.0073
      7 C          61.2697   85.2109    6.9744 C.ar    1  UNL1       -0.0015
      8 C          62.5689   84.5002    7.2127 C.ar    1  UNL1        0.0203
      9 C          63.3775   84.8064    8.4384 C.ar    1  UNL1        0.0985
     10 N          62.8869   85.8235    9.4258 N.ar    1  UNL1       -0.2471
     11 C          61.5876   86.5343    9.1875 C.ar    1  UNL1        0.0695
     12 C          62.9106   86.8642   11.9036 C.3     1  UNL1        0.0738
     13 C          63.3478   86.9004   13.3381 C.3     1  UNL1        0.0347
     14 C          64.1564   85.7711   13.9045 C.3     1  UNL1        0.0736
     15 C          62.2850   80.1100   13.2334 C.3     1  UNL1        0.0897
     16 N          62.7528   81.5253   13.4011 N.3     1  UNL1       -0.2691
     17 C          63.8362   82.0670   12.5163 C.3     1  UNL1        0.0897
     18 C          64.3040   83.4823   12.6840 C.3     1  UNL1        0.0897
     19 N          63.6885   84.3559   13.7367 N.3     1  UNL1       -0.2703
     20 C          62.6052   83.8142   14.6215 C.3     1  UNL1        0.0897
     21 C          62.1373   82.3989   14.4537 C.3     1  UNL1        0.0897
     22 C          61.7093   89.1573   12.1231 C.3     1  UNL1        0.0888
     23 C          62.8524   90.1187   12.2615 C.3     1  UNL1        0.0782
     24 C          63.5580   90.2605   13.5776 C.3     1  UNL1        0.0434
     25 C          64.7011   91.2219   13.7160 C.ar    1  UNL1       -0.0234
     26 C          65.4066   91.3637   15.0320 C.ar    1  UNL1       -0.0045
     27 C          66.5497   92.3251   15.1704 C.ar    1  UNL1       -0.0003
     28 C          66.9873   93.1446   13.9927 C.ar    1  UNL1       -0.0003
     29 C          66.2817   93.0027   12.6766 C.ar    1  UNL1       -0.0032
     30 C          65.1386   92.0414   12.5382 C.ar    1  UNL1       -0.0101
     31 C          64.4331   91.8995   11.2222 C.3     1  UNL1        0.0989
     32 N          63.2900   90.9381   11.0838 N.3     1  UNL1       -0.2674
     33 C          62.5844   90.7963    9.7678 C.3     1  UNL1        0.0899
@<TRIPOS>BOND
     1    15    16    1
     2    16    17    1
     3    17    18    1
     4    18    19    1
     5    19    14    1
     6    14    13    1
     7    13    12    1
     8    12     1    1
     9     1    22    1
    10    23    22    1
    11    23    24    1
    12    24    25    1
    13    25    26   ar
    14    26    27   ar
    15    27    28   ar
    16    28    29   ar
    17    29    30   ar
    18    30    31    1
    19    31    32    1
    20    32    33    1
    21     2     1    1
    22     2     3    1
    23     3     4    1
    24     4     5    1
    25     5     6    1
    26     6     7   ar
    27     7     8   ar
    28     8     9   ar
    29     9    10   ar
    30    10    11   ar
    31    19    20    1
    32    20    21    1
    33    21    16    1
    34    32    23    1
    35    11     2    1
    36    30    25   ar
    37    11     6   ar
