@<TRIPOS>MOLECULE
*****
 37 41 0 0 0
SMALL
GASTEIGER

@<TRIPOS>ATOM
      1 C          61.1954   90.6960   10.8068 C.3     1  UNL1        0.0553
      2 C          61.8361   89.5246   11.4904 C.ar    1  UNL1        0.0935
      3 N          61.6645   88.0825   11.1148 N.ar    1  UNL1       -0.1727
      4 N          62.4834   87.2562   12.0619 N.ar    1  UNL1       -0.2558
      5 C          63.1610   88.1876   13.0228 C.ar    1  UNL1        0.0704
      6 C          64.0776   87.7875   14.1406 C.3     1  UNL1        0.0531
      7 C          62.7610   89.5896   12.6696 C.ar    1  UNL1        0.0792
      8 C          62.6034   85.7611   12.0502 C.3     1  UNL1        0.1083
      9 C          62.5348   84.9931   13.3368 C.3     1  UNL1        0.0459
     10 C          62.6548   83.4979   13.3251 C.3     1  UNL1        0.0955
     11 N          62.8436   82.7709   12.0266 N.am    1  UNL1       -0.2775
     12 C          62.9637   81.2757   12.0149 C.2     1  UNL1        0.2525
     13 O          63.1525   80.5486   10.7166 O.2     1  UNL1       -0.2723
     14 C          62.9123   83.5389   10.7400 C.3     1  UNL1        0.0955
     15 C          62.7922   85.0341   10.7519 C.3     1  UNL1        0.0459
     16 C          62.8950   80.5076   13.3015 C.3     1  UNL1        0.1869
     17 C          61.5863   79.9433   13.7692 C.3     1  UNL1        0.0417
     18 O          64.1351   80.3039   14.1205 O.3     1  UNL1       -0.3758
     19 H          63.9175   79.7910   14.9146 H       1  UNL1        0.2110
     20 N          63.2074   90.8374   13.3722 N.pl3   1  UNL1       -0.2806
     21 H          62.5496   91.4009   13.8401 H       1  UNL1        0.1551
     22 C          64.6560   91.2266   13.3618 C.ar    1  UNL1        0.2208
     23 N          65.5121   90.9627   14.5648 N.ar    1  UNL1       -0.2111
     24 C          66.9607   91.3519   14.5545 C.ar    1  UNL1        0.1147
     25 C          67.5531   92.0051   13.3410 C.ar    1  UNL1        0.0946
     26 CL         69.0017   92.3944   13.3307 Cl      1  UNL1       -0.0790
     27 C          66.6969   92.2691   12.1379 C.ar    1  UNL1        0.0992
     28 N          65.2484   91.8798   12.1484 N.ar    1  UNL1       -0.2126
     29 C          67.2893   92.9223   10.9245 C.ar    1  UNL1        0.0572
     30 C          68.3513   92.3399   10.0396 C.ar    1  UNL1        0.1235
     31 N          68.6420   93.3303    8.9512 N.ar    1  UNL1       -0.1634
     32 N          67.7598   94.5247    9.1634 N.ar    1  UNL1       -0.2281
     33 C          67.6097   95.8093    8.4037 C.ar    1  UNL1        0.1004
     34 C          66.6235   96.8418    8.8636 C.ar    1  UNL1        0.0207
     35 C          65.7875   96.5896   10.0832 C.ar    1  UNL1        0.0031
     36 C          65.9376   95.3050   10.8429 C.ar    1  UNL1        0.0193
     37 C          66.9237   94.2725   10.3830 C.ar    1  UNL1        0.0858
@<TRIPOS>BOND
     1     1     2    1
     2     2     3   ar
     3     3     4   ar
     4     4     8    1
     5     8     9    1
     6     9    10    1
     7    10    11    1
     8    11    12   am
     9    12    13    2
    10    12    16    1
    11    16    17    1
    12    16    18    1
    13    11    14    1
    14    14    15    1
    15     4     5   ar
    16     5     6    1
    17     5     7   ar
    18     7    20    1
    19    20    22    1
    20    22    23   ar
    21    23    24   ar
    22    24    25   ar
    23    25    26    1
    24    25    27   ar
    25    27    29    1
    26    29    30   ar
    27    30    31   ar
    28    31    32   ar
    29    32    33   ar
    30    33    34   ar
    31    34    35   ar
    32    35    36   ar
    33    36    37   ar
    34    27    28   ar
    35     7     2   ar
    36    28    22   ar
    37    15     8    1
    38    37    29   ar
    39    37    32   ar
    40    18    19    1
    41    20    21    1
@<TRIPOS>MOLECULE
*****
 37 41 0 0 0
SMALL
GASTEIGER

@<TRIPOS>ATOM
      1 C          63.3350   90.5740   11.7864 C.3     1  UNL1        0.0553
      2 C          63.3999   89.3976   12.7147 C.ar    1  UNL1        0.0935
      3 N          63.4082   87.9536   12.3088 N.ar    1  UNL1       -0.1727
      4 N          63.4813   87.1221   13.5552 N.ar    1  UNL1       -0.2558
      5 C          63.5182   88.0522   14.7314 C.ar    1  UNL1        0.0704
      6 C          63.5923   87.6473   16.1737 C.3     1  UNL1        0.0531
      7 C          63.4679   89.4586   14.2119 C.ar    1  UNL1        0.0792
      8 C          63.5120   85.6236   13.6149 C.3     1  UNL1        0.1083
      9 C          62.4348   84.8240   12.9439 C.3     1  UNL1        0.0459
     10 C          62.4655   83.3255   13.0036 C.3     1  UNL1        0.0955
     11 N          63.5736   82.6267   13.7343 N.am    1  UNL1       -0.2775
     12 C          63.6044   81.1281   13.7939 C.2     1  UNL1        0.2525
     13 O          64.7124   80.4292   14.5246 O.2     1  UNL1       -0.2723
     14 C          64.6509   83.4262   14.4052 C.3     1  UNL1        0.0955
     15 C          64.6200   84.9248   14.3455 C.3     1  UNL1        0.0459
     16 C          62.5271   80.3285   13.1230 C.3     1  UNL1        0.1869
     17 C          61.2075   80.1258   13.8066 C.3     1  UNL1        0.0417
     18 O          62.7695   79.7316   11.7684 O.3     1  UNL1       -0.3758
     19 H          61.9780   79.2502   11.4808 H       1  UNL1        0.2110
     20 N          63.4829   90.7068   15.0436 N.pl3   1  UNL1       -0.2806
     21 H          62.7130   90.9257   15.6168 H       1  UNL1        0.1551
     22 C          64.6711   91.6215   15.0021 C.ar    1  UNL1        0.2208
     23 N          65.5362   91.7827   16.2168 N.ar    1  UNL1       -0.2111
     24 C          66.7243   92.6974   16.1753 C.ar    1  UNL1        0.1147
     25 C          67.0473   93.4508   14.9191 C.ar    1  UNL1        0.0946
     26 CL         68.2354   94.3655   14.8776 Cl      1  UNL1       -0.0790
     27 C          66.1820   93.2896   13.7043 C.ar    1  UNL1        0.0992
     28 N          64.9940   92.3749   13.7459 N.ar    1  UNL1       -0.2126
     29 C          66.5050   94.0431   12.4481 C.ar    1  UNL1        0.0572
     30 C          66.2286   95.4956   12.1955 C.ar    1  UNL1        0.1235
     31 N          66.7138   95.8264   10.8153 N.ar    1  UNL1       -0.1634
     32 N          67.2901   94.5785   10.2149 N.ar    1  UNL1       -0.2281
     33 C          67.9157   94.3033    8.8796 C.ar    1  UNL1        0.1004
     34 C          68.4122   92.9260    8.5536 C.ar    1  UNL1        0.0207
     35 C          68.2831   91.8238    9.5628 C.ar    1  UNL1        0.0031
     36 C          67.6575   92.0989   10.8980 C.ar    1  UNL1        0.0193
     37 C          67.1610   93.4762   11.2241 C.ar    1  UNL1        0.0858
@<TRIPOS>BOND
     1     1     2    1
     2     2     3   ar
     3     3     4   ar
     4     4     8    1
     5     8     9    1
     6     9    10    1
     7    10    11    1
     8    11    12   am
     9    12    13    2
    10    12    16    1
    11    16    17    1
    12    16    18    1
    13    11    14    1
    14    14    15    1
    15     4     5   ar
    16     5     6    1
    17     5     7   ar
    18     7    20    1
    19    20    22    1
    20    22    23   ar
    21    23    24   ar
    22    24    25   ar
    23    25    26    1
    24    25    27   ar
    25    27    29    1
    26    29    30   ar
    27    30    31   ar
    28    31    32   ar
    29    32    33   ar
    30    33    34   ar
    31    34    35   ar
    32    35    36   ar
    33    36    37   ar
    34    27    28   ar
    35     7     2   ar
    36    28    22   ar
    37    15     8    1
    38    37    29   ar
    39    37    32   ar
    40    18    19    1
    41    20    21    1
@<TRIPOS>MOLECULE
*****
 37 41 0 0 0
SMALL
GASTEIGER

@<TRIPOS>ATOM
      1 C          58.9890   89.2194   12.5288 C.3     1  UNL1        0.0553
      2 C          60.3664   89.7901   12.3644 C.ar    1  UNL1        0.0935
      3 N          61.3365   90.0847   13.4698 N.ar    1  UNL1       -0.1727
      4 N          62.5853   90.6431   12.8542 N.ar    1  UNL1       -0.2558
      5 C          62.3870   90.6935   11.3682 C.ar    1  UNL1        0.0704
      6 C          63.3847   91.1848   10.3618 C.3     1  UNL1        0.0531
      7 C          61.0156   90.1663   11.0654 C.ar    1  UNL1        0.0792
      8 C          63.8163   91.0751   13.5945 C.3     1  UNL1        0.1083
      9 C          65.0048   91.5895   12.8377 C.3     1  UNL1        0.0459
     10 C          66.2358   92.0216   13.5780 C.3     1  UNL1        0.0955
     11 N          66.2781   91.9392   15.0752 N.am    1  UNL1       -0.2775
     12 C          67.5092   92.3712   15.8155 C.2     1  UNL1        0.2525
     13 O          67.5516   92.2889   17.3127 O.2     1  UNL1       -0.2723
     14 C          65.0896   91.4248   15.8320 C.3     1  UNL1        0.0955
     15 C          63.8587   90.9928   15.0916 C.3     1  UNL1        0.0459
     16 C          68.6977   92.8856   15.0587 C.3     1  UNL1        0.1869
     17 C          69.4740   94.0555   15.5866 C.3     1  UNL1        0.0417
     18 O          69.1099   92.2302   13.7739 O.3     1  UNL1       -0.3758
     19 H          69.8903   92.6817   13.4164 H       1  UNL1        0.2110
     20 N          60.4013   90.0379    9.7031 N.pl3   1  UNL1       -0.2806
     21 H          59.9823   90.8200    9.2764 H       1  UNL1        0.1551
     22 C          60.4253   88.7180    8.9908 C.ar    1  UNL1        0.2208
     23 N          59.4782   88.4606    7.8565 N.ar    1  UNL1       -0.2111
     24 C          59.5022   87.1408    7.1443 C.ar    1  UNL1        0.1147
     25 C          60.4733   86.0783    7.5663 C.ar    1  UNL1        0.0946
     26 CL         60.4973   84.7584    6.8541 Cl      1  UNL1       -0.0790
     27 C          61.4204   86.3357    8.7007 C.ar    1  UNL1        0.0992
     28 N          61.3964   87.6556    9.4129 N.ar    1  UNL1       -0.2126
     29 C          62.3915   85.2733    9.1228 C.ar    1  UNL1        0.0572
     30 C          63.2302   84.4314    8.2075 C.ar    1  UNL1        0.1235
     31 N          64.0514   83.5040    9.0533 N.ar    1  UNL1       -0.1634
     32 N          63.7203   83.7727   10.4915 N.ar    1  UNL1       -0.2281
     33 C          64.2205   83.1630   11.7674 C.ar    1  UNL1        0.1004
     34 C          63.6947   83.6468   13.0863 C.ar    1  UNL1        0.0207
     35 C          62.6689   84.7403   13.1292 C.ar    1  UNL1        0.0031
     36 C          62.1687   85.3500   11.8533 C.ar    1  UNL1        0.0193
     37 C          62.6945   84.8662   10.5344 C.ar    1  UNL1        0.0858
@<TRIPOS>BOND
     1     1     2    1
     2     2     3   ar
     3     3     4   ar
     4     4     8    1
     5     8     9    1
     6     9    10    1
     7    10    11    1
     8    11    12   am
     9    12    13    2
    10    12    16    1
    11    16    17    1
    12    16    18    1
    13    11    14    1
    14    14    15    1
    15     4     5   ar
    16     5     6    1
    17     5     7   ar
    18     7    20    1
    19    20    22    1
    20    22    23   ar
    21    23    24   ar
    22    24    25   ar
    23    25    26    1
    24    25    27   ar
    25    27    29    1
    26    29    30   ar
    27    30    31   ar
    28    31    32   ar
    29    32    33   ar
    30    33    34   ar
    31    34    35   ar
    32    35    36   ar
    33    36    37   ar
    34    27    28   ar
    35     7     2   ar
    36    28    22   ar
    37    15     8    1
    38    37    29   ar
    39    37    32   ar
    40    18    19    1
    41    20    21    1
@<TRIPOS>MOLECULE
*****
 37 41 0 0 0
SMALL
GASTEIGER

@<TRIPOS>ATOM
      1 C          59.7555   89.8520    8.1952 C.3     1  UNL1        0.0553
      2 C          60.8167   89.6928    9.2432 C.ar    1  UNL1        0.0935
      3 N          61.5897   90.8032    9.8911 N.ar    1  UNL1       -0.1727
      4 N          62.5421   90.1919   10.8757 N.ar    1  UNL1       -0.2558
      5 C          62.3579   88.7038   10.8363 C.ar    1  UNL1        0.0704
      6 C          63.1081   87.7004   11.6609 C.3     1  UNL1        0.0531
      7 C          61.2915   88.3953    9.8274 C.ar    1  UNL1        0.0792
      8 C          63.5091   90.9378   11.7467 C.3     1  UNL1        0.1083
      9 C          63.6225   90.5981   13.2033 C.3     1  UNL1        0.0459
     10 C          64.5894   91.3440   14.0743 C.3     1  UNL1        0.0955
     11 N          65.4429   92.4296   13.4886 N.am    1  UNL1       -0.2775
     12 C          66.4099   93.1756   14.3597 C.2     1  UNL1        0.2525
     13 O          67.2634   94.2612   13.7741 O.2     1  UNL1       -0.2723
     14 C          65.3295   92.7694   12.0320 C.3     1  UNL1        0.0955
     15 C          64.3625   92.0234   11.1611 C.3     1  UNL1        0.0459
     16 C          66.5233   92.8358   15.8163 C.3     1  UNL1        0.1869
     17 C          67.8529   92.4536   16.3960 C.3     1  UNL1        0.0417
     18 O          65.3071   92.8784   16.6933 O.3     1  UNL1       -0.3758
     19 H          65.5529   92.6334   17.5991 H       1  UNL1        0.2110
     20 N          60.7883   87.0293    9.4660 N.pl3   1  UNL1       -0.2806
     21 H          59.8831   86.9206    9.0943 H       1  UNL1        0.1551
     22 C          61.6641   85.8288    9.6709 C.ar    1  UNL1        0.2208
     23 N          62.4078   85.2364    8.5108 N.ar    1  UNL1       -0.2111
     24 C          63.2836   84.0359    8.7157 C.ar    1  UNL1        0.1147
     25 C          63.4156   83.4280   10.0806 C.ar    1  UNL1        0.0946
     26 CL         64.2914   82.2276   10.2855 Cl      1  UNL1       -0.0790
     27 C          62.6718   84.0205   11.2407 C.ar    1  UNL1        0.0992
     28 N          61.7961   85.2209   11.0358 N.ar    1  UNL1       -0.2126
     29 C          62.8038   83.4126   12.6056 C.ar    1  UNL1        0.0572
     30 C          62.4951   81.9910   12.9712 C.ar    1  UNL1        0.1235
     31 N          62.7682   81.8194   14.4361 N.ar    1  UNL1       -0.1634
     32 N          63.2457   83.1349   14.9759 N.ar    1  UNL1       -0.2281
     33 C          63.6632   83.5634   16.3514 C.ar    1  UNL1        0.1004
     34 C          64.1028   84.9766   16.5955 C.ar    1  UNL1        0.0207
     35 C          64.1247   85.9613   15.4642 C.ar    1  UNL1        0.0031
     36 C          63.7072   85.5328   14.0887 C.ar    1  UNL1        0.0193
     37 C          63.2676   84.1196   13.8446 C.ar    1  UNL1        0.0858
@<TRIPOS>BOND
     1     1     2    1
     2     2     3   ar
     3     3     4   ar
     4     4     8    1
     5     8     9    1
     6     9    10    1
     7    10    11    1
     8    11    12   am
     9    12    13    2
    10    12    16    1
    11    16    17    1
    12    16    18    1
    13    11    14    1
    14    14    15    1
    15     4     5   ar
    16     5     6    1
    17     5     7   ar
    18     7    20    1
    19    20    22    1
    20    22    23   ar
    21    23    24   ar
    22    24    25   ar
    23    25    26    1
    24    25    27   ar
    25    27    29    1
    26    29    30   ar
    27    30    31   ar
    28    31    32   ar
    29    32    33   ar
    30    33    34   ar
    31    34    35   ar
    32    35    36   ar
    33    36    37   ar
    34    27    28   ar
    35     7     2   ar
    36    28    22   ar
    37    15     8    1
    38    37    29   ar
    39    37    32   ar
    40    18    19    1
    41    20    21    1
@<TRIPOS>MOLECULE
*****
 37 41 0 0 0
SMALL
GASTEIGER

@<TRIPOS>ATOM
      1 C          61.4112   89.3476   14.2271 C.3     1  UNL1        0.0553
      2 C          62.7179   90.0381   13.9708 C.ar    1  UNL1        0.0935
      3 N          62.9598   91.1211   12.9614 N.ar    1  UNL1       -0.1727
      4 N          64.4036   91.5192   13.0457 N.ar    1  UNL1       -0.2558
      5 C          65.0540   90.6822   14.1070 C.ar    1  UNL1        0.0704
      6 C          66.4934   90.7489   14.5235 C.3     1  UNL1        0.0531
      7 C          64.0122   89.7669   14.6788 C.ar    1  UNL1        0.0792
      8 C          65.0785   92.5697   12.2145 C.3     1  UNL1        0.1083
      9 C          65.0325   92.4856   10.7175 C.3     1  UNL1        0.0459
     10 C          65.7074   93.5362    9.8863 C.3     1  UNL1        0.0955
     11 N          66.4282   94.6707   10.5521 N.am    1  UNL1       -0.2775
     12 C          67.1031   95.7213    9.7208 C.2     1  UNL1        0.2525
     13 O          67.8240   96.8559   10.3865 O.2     1  UNL1       -0.2723
     14 C          66.4742   94.7548   12.0490 C.3     1  UNL1        0.0955
     15 C          65.7993   93.7042   12.8801 C.3     1  UNL1        0.0459
     16 C          67.0571   95.6373    8.2239 C.3     1  UNL1        0.1869
     17 C          66.4406   96.7498    7.4289 C.3     1  UNL1        0.0417
     18 O          67.6278   94.4407    7.5219 O.3     1  UNL1       -0.3758
     19 H          67.5175   94.5448    6.5639 H       1  UNL1        0.2110
     20 N          64.2270   88.7575   15.7674 N.pl3   1  UNL1       -0.2806
     21 H          64.6588   89.0268   16.6101 H       1  UNL1        0.1551
     22 C          63.7838   87.3379   15.5720 C.ar    1  UNL1        0.2208
     23 N          63.1754   86.5783   16.7134 N.ar    1  UNL1       -0.2111
     24 C          62.7323   85.1586   16.5180 C.ar    1  UNL1        0.1147
     25 C          62.8975   84.4986   15.1812 C.ar    1  UNL1        0.0946
     26 CL         62.4544   83.0789   14.9858 Cl      1  UNL1       -0.0790
     27 C          63.5059   85.2582   14.0397 C.ar    1  UNL1        0.0992
     28 N          63.9490   86.6778   14.2352 N.ar    1  UNL1       -0.2126
     29 C          63.6711   84.5982   12.7029 C.ar    1  UNL1        0.0572
     30 C          64.3969   83.3125   12.4381 C.ar    1  UNL1        0.1235
     31 N          64.3139   83.0277   10.9678 N.ar    1  UNL1       -0.1634
     32 N          63.5368   84.1374   10.3238 N.ar    1  UNL1       -0.2281
     33 C          63.1396   84.3895    8.8995 C.ar    1  UNL1        0.1004
     34 C          62.3452   85.6122    8.5476 C.ar    1  UNL1        0.0207
     35 C          61.9480   86.5828    9.6200 C.ar    1  UNL1        0.0031
     36 C          62.3452   86.3308   11.0443 C.ar    1  UNL1        0.0193
     37 C          63.1396   85.1081   11.3962 C.ar    1  UNL1        0.0858
@<TRIPOS>BOND
     1     1     2    1
     2     2     3   ar
     3     3     4   ar
     4     4     8    1
     5     8     9    1
     6     9    10    1
     7    10    11    1
     8    11    12   am
     9    12    13    2
    10    12    16    1
    11    16    17    1
    12    16    18    1
    13    11    14    1
    14    14    15    1
    15     4     5   ar
    16     5     6    1
    17     5     7   ar
    18     7    20    1
    19    20    22    1
    20    22    23   ar
    21    23    24   ar
    22    24    25   ar
    23    25    26    1
    24    25    27   ar
    25    27    29    1
    26    29    30   ar
    27    30    31   ar
    28    31    32   ar
    29    32    33   ar
    30    33    34   ar
    31    34    35   ar
    32    35    36   ar
    33    36    37   ar
    34    27    28   ar
    35     7     2   ar
    36    28    22   ar
    37    15     8    1
    38    37    29   ar
    39    37    32   ar
    40    18    19    1
    41    20    21    1
