@<TRIPOS>MOLECULE
*****
 26 29 0 0 0
SMALL
GASTEIGER

@<TRIPOS>ATOM
      1 C          61.7270   88.6119   10.7186 C.ar    1  UNL1       -0.0022
      2 C          61.8586   89.7875    9.7964 C.ar    1  UNL1       -0.0011
      3 C          62.8086   90.8995   10.1296 C.ar    1  UNL1        0.0189
      4 C          63.6270   90.8359   11.3850 C.ar    1  UNL1        0.0825
      5 C          63.4954   89.6601   12.3073 C.ar    1  UNL1        0.0189
      6 C          62.5454   88.5482   11.9741 C.ar    1  UNL1       -0.0011
      7 N          64.5771   91.9478   11.7182 N.ar    1  UNL1       -0.2316
      8 N          64.9993   93.0528   10.7959 N.ar    1  UNL1       -0.1617
      9 C          65.9548   93.9379   11.5400 C.ar    1  UNL1        0.1698
     10 C          66.1231   93.3799   12.9222 C.ar    1  UNL1        0.0197
     11 C          65.2716   92.1499   13.0323 C.ar    1  UNL1        0.0878
     12 C          65.2387   91.3729   14.3149 C.3     1  UNL1        0.1872
     13 O          66.0573   91.8259   15.4874 O.3     1  UNL1       -0.3470
     14 C          66.9088   93.0558   15.3772 C.3     1  UNL1        0.1474
     15 C          66.9417   93.8328   14.0946 C.3     1  UNL1        0.0612
     16 C          66.6245   95.1655   10.9973 C.3     1  UNL1        0.4362
     17 F          67.2941   96.3931   10.4546 F       1  UNL1       -0.1644
     18 F          65.7941   96.0209   11.9076 F       1  UNL1       -0.1644
     19 F          67.4548   94.3101   10.0870 F       1  UNL1       -0.1644
     20 C          60.7770   87.4999   10.3854 C.3     1  UNL1        0.1201
     21 O          58.6424   86.7901    8.0212 O.2     1  UNL1       -0.2749
     22 C          60.0558   86.2960    8.1103 C.2     1  UNL1        0.2259
     23 C          60.7363   85.3889    7.1285 C.3     1  UNL1        0.0870
     24 C          62.1381   85.1545    7.6084 C.3     1  UNL1        0.0311
     25 C          62.3239   85.9168    8.8867 C.3     1  UNL1        0.0942
     26 N          61.0370   86.6223    9.1971 N.am    1  UNL1       -0.2754
@<TRIPOS>BOND
     1    21    22    2
     2    22    23    1
     3    23    24    1
     4    24    25    1
     5    25    26    1
     6    26    20    1
     7    20     1    1
     8     1     2   ar
     9     2     3   ar
    10     3     4   ar
    11     4     7    1
    12     7     8   ar
    13     8     9   ar
    14     9    16    1
    15    16    17    1
    16    16    18    1
    17    16    19    1
    18     9    10   ar
    19    10    11   ar
    20    11    12    1
    21    12    13    1
    22    13    14    1
    23    14    15    1
    24     4     5   ar
    25     5     6   ar
    26    26    22   am
    27     6     1   ar
    28    11     7   ar
    29    15    10    1
@<TRIPOS>MOLECULE
*****
 26 29 0 0 0
SMALL
GASTEIGER

@<TRIPOS>ATOM
      1 C          61.6957   87.9287   10.6545 C.ar    1  UNL1       -0.0022
      2 C          61.7946   89.3352   10.1426 C.ar    1  UNL1       -0.0011
      3 C          62.7038   90.3176   10.8195 C.ar    1  UNL1        0.0189
      4 C          63.5141   89.8936   12.0084 C.ar    1  UNL1        0.0825
      5 C          63.4153   88.4870   12.5203 C.ar    1  UNL1        0.0189
      6 C          62.5061   87.5047   11.8433 C.ar    1  UNL1       -0.0011
      7 N          64.4233   90.8760   12.6853 N.ar    1  UNL1       -0.2316
      8 N          64.9485   90.7706   14.0864 N.ar    1  UNL1       -0.1617
      9 C          65.8167   91.9658   14.3470 C.ar    1  UNL1        0.1698
     10 C          65.8281   92.8097   13.1070 C.ar    1  UNL1        0.0197
     11 C          64.9669   92.1362   12.0800 C.ar    1  UNL1        0.0878
     12 C          64.7890   92.7574   10.7264 C.3     1  UNL1        0.1872
     13 O          65.4723   94.0522   10.3997 O.3     1  UNL1       -0.3470
     14 C          66.3334   94.7257   11.4267 C.3     1  UNL1        0.1474
     15 C          66.5114   94.1045   12.7804 C.3     1  UNL1        0.0612
     16 C          66.5456   92.2645   15.6235 C.3     1  UNL1        0.4362
     17 F          67.2745   92.5633   16.9001 F       1  UNL1       -0.1644
     18 F          65.2372   92.5217   16.3104 F       1  UNL1       -0.1644
     19 F          67.8540   92.0074   14.9366 F       1  UNL1       -0.1644
     20 C          60.7865   86.9464    9.9775 C.3     1  UNL1        0.1201
     21 O          59.0789   86.2113    7.2954 O.2     1  UNL1       -0.2749
     22 C          60.4971   85.8109    7.5749 C.2     1  UNL1        0.2259
     23 C          61.3795   85.0024    6.6707 C.3     1  UNL1        0.0870
     24 C          62.7099   84.8405    7.3447 C.3     1  UNL1        0.0311
     25 C          62.6496   85.5490    8.6654 C.3     1  UNL1        0.0942
     26 N          61.2820   86.1488    8.8078 N.am    1  UNL1       -0.2754
@<TRIPOS>BOND
     1    21    22    2
     2    22    23    1
     3    23    24    1
     4    24    25    1
     5    25    26    1
     6    26    20    1
     7    20     1    1
     8     1     2   ar
     9     2     3   ar
    10     3     4   ar
    11     4     7    1
    12     7     8   ar
    13     8     9   ar
    14     9    16    1
    15    16    17    1
    16    16    18    1
    17    16    19    1
    18     9    10   ar
    19    10    11   ar
    20    11    12    1
    21    12    13    1
    22    13    14    1
    23    14    15    1
    24     4     5   ar
    25     5     6   ar
    26    26    22   am
    27     6     1   ar
    28    11     7   ar
    29    15    10    1
@<TRIPOS>MOLECULE
*****
 26 29 0 0 0
SMALL
GASTEIGER

@<TRIPOS>ATOM
      1 C          62.3894   88.5191   11.1471 C.ar    1  UNL1       -0.0022
      2 C          62.4681   89.6334   10.1460 C.ar    1  UNL1       -0.0011
      3 C          63.3153   90.8382   10.4299 C.ar    1  UNL1        0.0189
      4 C          64.0839   90.9288   11.7148 C.ar    1  UNL1        0.0825
      5 C          64.0053   89.8145   12.7159 C.ar    1  UNL1        0.0189
      6 C          63.1580   88.6097   12.4320 C.ar    1  UNL1       -0.0011
      7 N          64.9312   92.1336   11.9986 N.ar    1  UNL1       -0.2316
      8 N          65.1916   93.2705   11.0553 N.ar    1  UNL1       -0.1617
      9 C          66.0881   94.2525   11.7494 C.ar    1  UNL1        0.1698
     10 C          66.3818   93.7227   13.1216 C.ar    1  UNL1        0.0197
     11 C          65.6668   92.4131   13.2756 C.ar    1  UNL1        0.0878
     12 C          65.7779   91.6443   14.5588 C.3     1  UNL1        0.1872
     13 O          66.6040   92.1851   15.6879 O.3     1  UNL1       -0.3470
     14 C          67.3191   93.4947   15.5339 C.3     1  UNL1        0.1474
     15 C          67.2080   94.2635   14.2507 C.3     1  UNL1        0.0612
     16 C          66.6010   95.5387   11.1725 C.3     1  UNL1        0.4362
     17 F          67.1139   96.8248   10.5955 F       1  UNL1       -0.1644
     18 F          67.4252   94.7671   10.1850 F       1  UNL1       -0.1644
     19 F          65.7768   96.3103   12.1599 F       1  UNL1       -0.1644
     20 C          61.5421   87.3143   10.8632 C.3     1  UNL1        0.1201
     21 O          62.2247   85.1059   13.1669 O.2     1  UNL1       -0.2749
     22 C          62.5017   84.9638   11.6997 C.2     1  UNL1        0.2259
     23 C          63.1411   83.7817   11.0336 C.3     1  UNL1        0.0870
     24 C          63.2226   84.0661    9.5630 C.3     1  UNL1        0.0311
     25 C          62.6336   85.4240    9.3202 C.3     1  UNL1        0.0942
     26 N          62.1880   85.9789   10.6408 N.am    1  UNL1       -0.2754
@<TRIPOS>BOND
     1    21    22    2
     2    22    23    1
     3    23    24    1
     4    24    25    1
     5    25    26    1
     6    26    20    1
     7    20     1    1
     8     1     2   ar
     9     2     3   ar
    10     3     4   ar
    11     4     7    1
    12     7     8   ar
    13     8     9   ar
    14     9    16    1
    15    16    17    1
    16    16    18    1
    17    16    19    1
    18     9    10   ar
    19    10    11   ar
    20    11    12    1
    21    12    13    1
    22    13    14    1
    23    14    15    1
    24     4     5   ar
    25     5     6   ar
    26    26    22   am
    27     6     1   ar
    28    11     7   ar
    29    15    10    1
@<TRIPOS>MOLECULE
*****
 26 29 0 0 0
SMALL
GASTEIGER

@<TRIPOS>ATOM
      1 C          62.5964   87.2662   11.9540 C.ar    1  UNL1       -0.0022
      2 C          62.4987   88.5285   11.1497 C.ar    1  UNL1       -0.0011
      3 C          63.2749   89.7435   11.5636 C.ar    1  UNL1        0.0189
      4 C          64.1489   89.6962   12.7817 C.ar    1  UNL1        0.0825
      5 C          64.2467   88.4337   13.5860 C.ar    1  UNL1        0.0189
      6 C          63.4704   87.2188   13.1721 C.ar    1  UNL1       -0.0011
      7 N          64.9252   90.9111   13.1956 N.ar    1  UNL1       -0.2316
      8 N          65.5992   91.1180   14.5195 N.ar    1  UNL1       -0.1617
      9 C          66.2542   92.4672   14.5003 C.ar    1  UNL1        0.1698
     10 C          65.9851   93.0943   13.1645 C.ar    1  UNL1        0.0197
     11 C          65.1637   92.1325   12.3581 C.ar    1  UNL1        0.0878
     12 C          64.7390   92.4932   10.9655 C.3     1  UNL1        0.1872
     13 O          65.1357   93.8156   10.3792 O.3     1  UNL1       -0.3470
     14 C          65.9572   94.7774   11.1856 C.3     1  UNL1        0.1474
     15 C          66.3818   94.4167   12.5782 C.3     1  UNL1        0.0612
     16 C          67.0405   93.0817   15.6203 C.3     1  UNL1        0.4362
     17 F          67.8266   93.6961   16.7404 F       1  UNL1       -0.1644
     18 F          65.8857   92.8612   16.5519 F       1  UNL1       -0.1644
     19 F          68.1952   93.3022   14.6888 F       1  UNL1       -0.1644
     20 C          61.8202   86.0512   11.5401 C.3     1  UNL1        0.1201
     21 O          62.4033   83.6378   13.6580 O.2     1  UNL1       -0.2749
     22 C          62.8062   83.6595   12.2134 C.2     1  UNL1        0.2259
     23 C          63.5479   82.5759   11.4885 C.3     1  UNL1        0.0870
     24 C          63.7382   83.0154   10.0669 C.3     1  UNL1        0.0311
     25 C          63.1142   84.3707    9.9133 C.3     1  UNL1        0.0942
     26 N          62.5381   84.7689   11.2399 N.am    1  UNL1       -0.2754
@<TRIPOS>BOND
     1    21    22    2
     2    22    23    1
     3    23    24    1
     4    24    25    1
     5    25    26    1
     6    26    20    1
     7    20     1    1
     8     1     2   ar
     9     2     3   ar
    10     3     4   ar
    11     4     7    1
    12     7     8   ar
    13     8     9   ar
    14     9    16    1
    15    16    17    1
    16    16    18    1
    17    16    19    1
    18     9    10   ar
    19    10    11   ar
    20    11    12    1
    21    12    13    1
    22    13    14    1
    23    14    15    1
    24     4     5   ar
    25     5     6   ar
    26    26    22   am
    27     6     1   ar
    28    11     7   ar
    29    15    10    1
@<TRIPOS>MOLECULE
*****
 26 29 0 0 0
SMALL
GASTEIGER

@<TRIPOS>ATOM
      1 C          63.4456   84.5167   14.9230 C.ar    1  UNL1       -0.0022
      2 C          63.1674   84.9405   13.5113 C.ar    1  UNL1       -0.0011
      3 C          63.4036   86.3620   13.0946 C.ar    1  UNL1        0.0189
      4 C          63.9178   87.3597   14.0895 C.ar    1  UNL1        0.0825
      5 C          64.1960   86.9358   15.5014 C.ar    1  UNL1        0.0189
      6 C          63.9599   85.5143   15.9180 C.ar    1  UNL1       -0.0011
      7 N          64.1539   88.7811   13.6728 N.ar    1  UNL1       -0.2316
      8 N          64.9894   89.7878   14.4067 N.ar    1  UNL1       -0.1617
      9 C          64.9478   91.0743   13.6365 C.ar    1  UNL1        0.1698
     10 C          64.0866   90.8628   12.4267 C.ar    1  UNL1        0.0197
     11 C          63.5960   89.4455   12.4492 C.ar    1  UNL1        0.0878
     12 C          62.7045   88.9429   11.3525 C.3     1  UNL1        0.1872
     13 O          62.3038   89.8577   10.2333 O.3     1  UNL1       -0.3470
     14 C          62.7944   91.2750   10.2109 C.3     1  UNL1        0.1474
     15 C          63.6859   91.7775   11.3076 C.3     1  UNL1        0.0612
     16 C          65.6450   92.3487   14.0104 C.3     1  UNL1        0.4362
     17 F          66.3423   93.6232   14.3843 F       1  UNL1       -0.1644
     18 F          66.2829   92.3979   12.6537 F       1  UNL1       -0.1644
     19 F          65.0072   92.2996   15.3671 F       1  UNL1       -0.1644
     20 C          63.2095   83.0952   15.3397 C.3     1  UNL1        0.1201
     21 O          64.9040   82.2058   12.6963 O.2     1  UNL1       -0.2749
     22 C          63.5661   81.6672   13.1082 C.2     1  UNL1        0.2259
     23 C          62.7721   80.6253   12.3776 C.3     1  UNL1        0.0870
     24 C          61.5024   80.3901   13.1410 C.3     1  UNL1        0.0311
     25 C          61.5117   81.2867   14.3435 C.3     1  UNL1        0.0942
     26 N          62.7872   82.0761   14.3233 N.am    1  UNL1       -0.2754
@<TRIPOS>BOND
     1    21    22    2
     2    22    23    1
     3    23    24    1
     4    24    25    1
     5    25    26    1
     6    26    20    1
     7    20     1    1
     8     1     2   ar
     9     2     3   ar
    10     3     4   ar
    11     4     7    1
    12     7     8   ar
    13     8     9   ar
    14     9    16    1
    15    16    17    1
    16    16    18    1
    17    16    19    1
    18     9    10   ar
    19    10    11   ar
    20    11    12    1
    21    12    13    1
    22    13    14    1
    23    14    15    1
    24     4     5   ar
    25     5     6   ar
    26    26    22   am
    27     6     1   ar
    28    11     7   ar
    29    15    10    1
@<TRIPOS>MOLECULE
*****
 26 29 0 0 0
SMALL
GASTEIGER

@<TRIPOS>ATOM
      1 C          63.1052   84.5383   14.8937 C.ar    1  UNL1       -0.0022
      2 C          63.4908   85.4709   16.0034 C.ar    1  UNL1       -0.0011
      3 C          63.8713   86.8885   15.6937 C.ar    1  UNL1        0.0189
      4 C          63.8660   87.3734   14.2743 C.ar    1  UNL1        0.0825
      5 C          63.4803   86.4407   13.1645 C.ar    1  UNL1        0.0189
      6 C          63.0999   85.0232   13.4743 C.ar    1  UNL1       -0.0011
      7 N          64.2464   88.7909   13.9645 N.ar    1  UNL1       -0.2316
      8 N          65.1075   89.6783   14.8136 N.ar    1  UNL1       -0.1617
      9 C          65.2258   91.0057   14.1251 C.ar    1  UNL1        0.1698
     10 C          64.4378   90.9387   12.8505 C.ar    1  UNL1        0.0197
     11 C          63.8325   89.5698   12.7513 C.ar    1  UNL1        0.0878
     12 C          62.9826   89.2095   11.5690 C.3     1  UNL1        0.1872
     13 O          62.7380   90.2180   10.4860 O.3     1  UNL1       -0.3470
     14 C          63.3433   91.5869   10.5852 C.3     1  UNL1        0.1474
     15 C          64.1932   91.9472   11.7675 C.3     1  UNL1        0.0612
     16 C          65.9967   92.1920   14.6237 C.3     1  UNL1        0.4362
     17 F          66.7677   93.3782   15.1221 F       1  UNL1       -0.1644
     18 F          66.9228   92.0839   13.4486 F       1  UNL1       -0.1644
     19 F          65.0707   92.3000   15.7986 F       1  UNL1       -0.1644
     20 C          62.7247   83.1208   15.2035 C.3     1  UNL1        0.1201
     21 O          60.4389   80.8979   14.5085 O.2     1  UNL1       -0.2749
     22 C          61.7611   81.0488   13.8165 C.2     1  UNL1        0.2259
     23 C          62.2648   80.2046   12.6836 C.3     1  UNL1        0.0870
     24 C          63.6269   80.7046   12.3029 C.3     1  UNL1        0.0311
     25 C          63.9649   81.8578   13.2005 C.3     1  UNL1        0.0942
     26 N          62.8118   82.0706   14.1360 N.am    1  UNL1       -0.2754
@<TRIPOS>BOND
     1    21    22    2
     2    22    23    1
     3    23    24    1
     4    24    25    1
     5    25    26    1
     6    26    20    1
     7    20     1    1
     8     1     2   ar
     9     2     3   ar
    10     3     4   ar
    11     4     7    1
    12     7     8   ar
    13     8     9   ar
    14     9    16    1
    15    16    17    1
    16    16    18    1
    17    16    19    1
    18     9    10   ar
    19    10    11   ar
    20    11    12    1
    21    12    13    1
    22    13    14    1
    23    14    15    1
    24     4     5   ar
    25     5     6   ar
    26    26    22   am
    27     6     1   ar
    28    11     7   ar
    29    15    10    1
@<TRIPOS>MOLECULE
*****
 26 29 0 0 0
SMALL
GASTEIGER

@<TRIPOS>ATOM
      1 C          63.5277   83.5752   11.0009 C.ar    1  UNL1       -0.0022
      2 C          63.6302   83.9995    9.5659 C.ar    1  UNL1       -0.0011
      3 C          62.8631   85.1935    9.0801 C.ar    1  UNL1        0.0189
      4 C          61.9935   85.9633   10.0293 C.ar    1  UNL1        0.0825
      5 C          61.8910   85.5390   11.4645 C.ar    1  UNL1        0.0189
      6 C          62.6581   84.3450   11.9503 C.ar    1  UNL1       -0.0011
      7 N          61.2264   87.1573    9.5436 N.ar    1  UNL1       -0.2316
      8 N          60.7161   87.3698    8.1492 N.ar    1  UNL1       -0.1617
      9 C          60.0093   88.6922    8.1108 C.ar    1  UNL1        0.1698
     10 C          60.0828   89.2971    9.4815 C.ar    1  UNL1        0.0197
     11 C          60.8351   88.3484   10.3670 C.ar    1  UNL1        0.0878
     12 C          61.0665   88.6917   11.8087 C.3     1  UNL1        0.1872
     13 O          60.5456   89.9837   12.3649 O.3     1  UNL1       -0.3470
     14 C          59.7934   90.9324   11.4794 C.3     1  UNL1        0.1474
     15 C          59.5620   90.5891   10.0377 C.3     1  UNL1        0.0612
     16 C          59.3455   89.3027    6.9122 C.3     1  UNL1        0.4362
     17 F          58.6818   89.9133    5.7136 F       1  UNL1       -0.1644
     18 F          60.5202   90.2170    6.7273 F       1  UNL1       -0.1644
     19 F          58.1709   88.3885    7.0971 F       1  UNL1       -0.1644
     20 C          64.2948   82.3812   11.4867 C.3     1  UNL1        0.1201
     21 O          64.0912   82.4325   14.7433 O.2     1  UNL1       -0.2749
     22 C          63.5245   81.3768   13.8411 C.2     1  UNL1        0.2259
     23 C          62.7647   80.1592   14.2772 C.3     1  UNL1        0.0870
     24 C          62.3887   79.3831   13.0498 C.3     1  UNL1        0.0311
     25 C          62.9160   80.1210   11.8552 C.3     1  UNL1        0.0942
     26 N          63.6181   81.3532   12.3441 N.am    1  UNL1       -0.2754
@<TRIPOS>BOND
     1    21    22    2
     2    22    23    1
     3    23    24    1
     4    24    25    1
     5    25    26    1
     6    26    20    1
     7    20     1    1
     8     1     2   ar
     9     2     3   ar
    10     3     4   ar
    11     4     7    1
    12     7     8   ar
    13     8     9   ar
    14     9    16    1
    15    16    17    1
    16    16    18    1
    17    16    19    1
    18     9    10   ar
    19    10    11   ar
    20    11    12    1
    21    12    13    1
    22    13    14    1
    23    14    15    1
    24     4     5   ar
    25     5     6   ar
    26    26    22   am
    27     6     1   ar
    28    11     7   ar
    29    15    10    1
