@<TRIPOS>MOLECULE
*****
 31 33 0 0 0
SMALL
GASTEIGER

@<TRIPOS>ATOM
      1 C          62.5635   90.0336   12.2096 C.2     1  UNL1        0.2494
      2 O          61.1550   90.5482   12.2413 O.2     1  UNL1       -0.2700
      3 N          62.9226   88.8858   11.3131 N.am    1  UNL1       -0.2991
      4 H          63.8471   88.5480   11.2923 H       1  UNL1        0.1500
      5 C          61.8732   88.2528   10.4483 C.3     1  UNL1        0.0907
      6 C          61.7618   89.6775    9.9925 C.3     1  UNL1        0.0250
      7 C          60.7661   90.0507    8.9343 C.3     1  UNL1        0.0194
      8 C          59.8820   88.9992    8.3322 C.3     1  UNL1        0.0723
      9 N          59.9934   87.5745    8.7880 N.3     1  UNL1       -0.2699
     10 C          59.1092   86.5230    8.1858 C.3     1  UNL1        0.0897
     11 C          60.9890   87.2013    9.8461 C.3     1  UNL1        0.0945
     12 C          62.3491   87.0479   11.2045 C.ar    1  UNL1       -0.0050
     13 C          62.0853   85.6726   10.6669 C.ar    1  UNL1       -0.0027
     14 C          62.5612   84.4678   11.4231 C.ar    1  UNL1       -0.0003
     15 C          63.3009   84.6382   12.7168 C.ar    1  UNL1       -0.0000
     16 C          63.5648   86.0135   13.2544 C.ar    1  UNL1       -0.0003
     17 C          63.0888   87.2184   12.4982 C.ar    1  UNL1       -0.0027
     18 C          63.6620   90.3583   14.5416 C.ar    1  UNL1        0.1434
     19 C          64.7114   90.9913   15.4063 C.ar    1  UNL1        0.0409
     20 C          65.7120   91.9327   14.8039 C.ar    1  UNL1        0.0749
     21 C          65.6630   92.2409   13.3368 C.ar    1  UNL1        0.0103
     22 C          64.6135   91.6079   12.4721 C.ar    1  UNL1        0.0325
     23 C          63.6130   90.6666   13.0744 C.ar    1  UNL1        0.0929
     24 C          66.7615   92.5657   15.6688 C.3     1  UNL1        0.4187
     25 F          67.8109   93.1987   16.5336 F       1  UNL1       -0.1659
     26 F          65.7509   92.7469   16.7623 F       1  UNL1       -0.1659
     27 F          67.7720   92.3845   14.5752 F       1  UNL1       -0.1659
     28 C          62.9026   88.8373   16.5062 C.3     1  UNL1        0.2525
     29 O          62.6614   89.4170   15.1440 O.3     1  UNL1       -0.4713
     30 S          64.5645   91.9162   11.0048 S.3     1  UNL1       -0.1125
     31 C          65.4577   92.9759   10.4309 C.3     1  UNL1        0.0742
@<TRIPOS>BOND
     1    28    29    1
     2    29    18    1
     3    18    19   ar
     4    19    20   ar
     5    20    24    1
     6    24    25    1
     7    24    26    1
     8    24    27    1
     9    20    21   ar
    10    21    22   ar
    11    22    30    1
    12    30    31    1
    13    22    23   ar
    14    23     1    1
    15     1     2    2
    16     1     3   am
    17     5     3    1
    18     5    12    1
    19    12    13   ar
    20    13    14   ar
    21    14    15   ar
    22    15    16   ar
    23    16    17   ar
    24     5     6    1
    25     6     7    1
    26     7     8    1
    27     8     9    1
    28     9    10    1
    29     9    11    1
    30    23    18   ar
    31    11     5    1
    32    17    12   ar
    33     3     4    1
@<TRIPOS>MOLECULE
*****
 31 33 0 0 0
SMALL
GASTEIGER

@<TRIPOS>ATOM
      1 C          62.2829   89.0625   12.3520 C.2     1  UNL1        0.2494
      2 O          61.1483   89.6129   13.1642 O.2     1  UNL1       -0.2700
      3 N          63.6984   89.4031   12.7133 N.am    1  UNL1       -0.2991
      4 H          64.4430   89.0418   12.1801 H       1  UNL1        0.1500
      5 C          63.9792   90.2940   13.8869 C.3     1  UNL1        0.0907
      6 C          63.3260   89.1394   14.5868 C.3     1  UNL1        0.0250
      7 C          63.1465   89.1692   16.0758 C.3     1  UNL1        0.0194
      8 C          63.6204   90.3536   16.8647 C.3     1  UNL1        0.0723
      9 N          64.2737   91.5083   16.1648 N.3     1  UNL1       -0.2699
     10 C          64.7476   92.6928   16.9537 C.3     1  UNL1        0.0897
     11 C          64.4531   91.4785   14.6758 C.3     1  UNL1        0.0945
     12 C          64.5350   91.1393   12.7793 C.ar    1  UNL1       -0.0050
     13 C          65.8373   91.8596   12.9668 C.ar    1  UNL1       -0.0027
     14 C          66.3930   92.7049   11.8592 C.ar    1  UNL1       -0.0003
     15 C          65.6465   92.8297   10.5642 C.ar    1  UNL1       -0.0000
     16 C          64.3442   92.1094   10.3767 C.ar    1  UNL1       -0.0003
     17 C          63.7884   91.2641   11.4843 C.ar    1  UNL1       -0.0027
     18 C          62.4436   86.7382   11.2022 C.ar    1  UNL1        0.1434
     19 C          62.1627   85.8474   10.0286 C.ar    1  UNL1        0.0409
     20 C          61.4403   86.3898    8.8311 C.ar    1  UNL1        0.0749
     21 C          60.9988   87.8231    8.8073 C.ar    1  UNL1        0.0103
     22 C          61.2797   88.7140    9.9809 C.ar    1  UNL1        0.0325
     23 C          62.0021   88.1715   11.1783 C.ar    1  UNL1        0.0929
     24 C          61.1595   85.4988    7.6575 C.3     1  UNL1        0.4187
     25 F          60.8787   84.6079    6.4839 F       1  UNL1       -0.1659
     26 F          62.6129   85.1349    7.5860 F       1  UNL1       -0.1659
     27 F          59.7061   85.8627    7.7289 F       1  UNL1       -0.1659
     28 C          63.0397   84.7448   12.7581 C.3     1  UNL1        0.2525
     29 O          63.1660   86.1958   12.3996 O.3     1  UNL1       -0.4713
     30 S          60.8381   90.1474    9.9571 S.3     1  UNL1       -0.1125
     31 C          59.6001   90.5631   10.6949 C.3     1  UNL1        0.0742
@<TRIPOS>BOND
     1    28    29    1
     2    29    18    1
     3    18    19   ar
     4    19    20   ar
     5    20    24    1
     6    24    25    1
     7    24    26    1
     8    24    27    1
     9    20    21   ar
    10    21    22   ar
    11    22    30    1
    12    30    31    1
    13    22    23   ar
    14    23     1    1
    15     1     2    2
    16     1     3   am
    17     5     3    1
    18     5    12    1
    19    12    13   ar
    20    13    14   ar
    21    14    15   ar
    22    15    16   ar
    23    16    17   ar
    24     5     6    1
    25     6     7    1
    26     7     8    1
    27     8     9    1
    28     9    10    1
    29     9    11    1
    30    23    18   ar
    31    11     5    1
    32    17    12   ar
    33     3     4    1
@<TRIPOS>MOLECULE
*****
 31 33 0 0 0
SMALL
GASTEIGER

@<TRIPOS>ATOM
      1 C          62.6789   90.0148   12.2685 C.2     1  UNL1        0.2494
      2 O          61.2676   90.5109   12.3777 O.2     1  UNL1       -0.2700
      3 N          63.0095   88.8947   11.3271 N.am    1  UNL1       -0.2991
      4 H          63.9358   88.5691   11.2555 H       1  UNL1        0.1500
      5 C          61.9287   88.2708   10.4949 C.3     1  UNL1        0.0907
      6 C          61.8341   89.6912   10.0224 C.3     1  UNL1        0.0250
      7 C          60.8218   90.0697    8.9820 C.3     1  UNL1        0.0194
      8 C          59.9043   89.0276    8.4144 C.3     1  UNL1        0.0723
      9 N          59.9989   87.6072    8.8869 N.3     1  UNL1       -0.2699
     10 C          59.0813   86.5652    8.3192 C.3     1  UNL1        0.0897
     11 C          61.0111   87.2287    9.9272 C.3     1  UNL1        0.0945
     12 C          62.3987   87.0670   11.2566 C.ar    1  UNL1       -0.0050
     13 C          62.1000   85.6901   10.7417 C.ar    1  UNL1       -0.0027
     14 C          62.5700   84.4863   11.5034 C.ar    1  UNL1       -0.0003
     15 C          63.3386   84.6595   12.7798 C.ar    1  UNL1       -0.0000
     16 C          63.6373   86.0363   13.2946 C.ar    1  UNL1       -0.0003
     17 C          63.1673   87.2401   12.5330 C.ar    1  UNL1       -0.0027
     18 C          64.7600   91.5578   12.4645 C.ar    1  UNL1        0.1434
     19 C          65.8408   92.1817   13.2967 C.ar    1  UNL1        0.0409
     20 C          65.9214   91.8865   14.7651 C.ar    1  UNL1        0.0749
     21 C          64.9212   90.9674   15.4014 C.ar    1  UNL1        0.0103
     22 C          63.8404   90.3435   14.5692 C.ar    1  UNL1        0.0325
     23 C          63.7598   90.6387   13.1007 C.ar    1  UNL1        0.0929
     24 C          67.0022   92.5104   15.5973 C.3     1  UNL1        0.4187
     25 F          68.0831   93.1344   16.4294 F       1  UNL1       -0.1659
     26 F          67.9938   92.2542   14.5014 F       1  UNL1       -0.1659
     27 F          66.0106   92.7667   16.6932 F       1  UNL1       -0.1659
     28 C          65.4728   92.9851   10.4139 C.3     1  UNL1        0.2525
     29 O          64.6794   91.8530   10.9960 O.3     1  UNL1       -0.4713
     30 S          62.8401   89.4244   15.2054 S.3     1  UNL1       -0.1125
     31 C          63.0552   88.9370   16.6076 C.3     1  UNL1        0.0742
@<TRIPOS>BOND
     1    28    29    1
     2    29    18    1
     3    18    19   ar
     4    19    20   ar
     5    20    24    1
     6    24    25    1
     7    24    26    1
     8    24    27    1
     9    20    21   ar
    10    21    22   ar
    11    22    30    1
    12    30    31    1
    13    22    23   ar
    14    23     1    1
    15     1     2    2
    16     1     3   am
    17     5     3    1
    18     5    12    1
    19    12    13   ar
    20    13    14   ar
    21    14    15   ar
    22    15    16   ar
    23    16    17   ar
    24     5     6    1
    25     6     7    1
    26     7     8    1
    27     8     9    1
    28     9    10    1
    29     9    11    1
    30    23    18   ar
    31    11     5    1
    32    17    12   ar
    33     3     4    1
@<TRIPOS>MOLECULE
*****
 31 33 0 0 0
SMALL
GASTEIGER

@<TRIPOS>ATOM
      1 C          62.5291   86.2937   12.0578 C.2     1  UNL1        0.2494
      2 O          61.1112   85.8144   11.9589 O.2     1  UNL1       -0.2700
      3 N          63.6139   85.3456   12.4752 N.am    1  UNL1       -0.2991
      4 H          64.5445   85.6603   12.5401 H       1  UNL1        0.1500
      5 C          63.2809   83.9182   12.7936 C.3     1  UNL1        0.0907
      6 C          63.3974   83.8317   11.3007 C.3     1  UNL1        0.0250
      7 C          63.1806   82.5198   10.6062 C.3     1  UNL1        0.0194
      8 C          62.8473   81.2946   11.4048 C.3     1  UNL1        0.0723
      9 N          62.7309   81.3812   12.8977 N.3     1  UNL1       -0.2699
     10 C          62.3976   80.1559   13.6963 C.3     1  UNL1        0.0897
     11 C          62.9476   82.6929   13.5922 C.3     1  UNL1        0.0945
     12 C          63.2801   84.5005   14.1760 C.ar    1  UNL1       -0.0050
     13 C          62.0124   84.5280   14.9774 C.ar    1  UNL1       -0.0027
     14 C          62.0116   85.1103   16.3598 C.ar    1  UNL1       -0.0003
     15 C          63.2784   85.6650   16.9407 C.ar    1  UNL1       -0.0000
     16 C          64.5461   85.6375   16.1393 C.ar    1  UNL1       -0.0003
     17 C          64.5469   85.0552   14.7569 C.ar    1  UNL1       -0.0027
     18 C          63.5223   88.5857   12.7721 C.ar    1  UNL1        0.1434
     19 C          63.8553   90.0132   12.4536 C.ar    1  UNL1        0.0409
     20 C          63.5281   90.5761   11.1023 C.ar    1  UNL1        0.0749
     21 C          62.8679   89.7116   10.0695 C.ar    1  UNL1        0.0103
     22 C          62.5349   88.2842   10.3880 C.ar    1  UNL1        0.0325
     23 C          62.8621   87.7212   11.7393 C.ar    1  UNL1        0.0929
     24 C          63.8612   92.0036   10.7839 C.3     1  UNL1        0.4187
     25 F          64.1942   93.4311   10.4654 F       1  UNL1       -0.1659
     26 F          63.0916   91.8969    9.5008 F       1  UNL1       -0.1659
     27 F          64.6308   92.1104   12.0669 F       1  UNL1       -0.1659
     28 C          63.8947   88.9250   15.3209 C.3     1  UNL1        0.2525
     29 O          63.8495   88.0228   14.1234 O.3     1  UNL1       -0.4713
     30 S          61.8747   87.4196    9.3552 S.3     1  UNL1       -0.1125
     31 C          60.4420   87.6594    8.9810 C.3     1  UNL1        0.0742
@<TRIPOS>BOND
     1    28    29    1
     2    29    18    1
     3    18    19   ar
     4    19    20   ar
     5    20    24    1
     6    24    25    1
     7    24    26    1
     8    24    27    1
     9    20    21   ar
    10    21    22   ar
    11    22    30    1
    12    30    31    1
    13    22    23   ar
    14    23     1    1
    15     1     2    2
    16     1     3   am
    17     5     3    1
    18     5    12    1
    19    12    13   ar
    20    13    14   ar
    21    14    15   ar
    22    15    16   ar
    23    16    17   ar
    24     5     6    1
    25     6     7    1
    26     7     8    1
    27     8     9    1
    28     9    10    1
    29     9    11    1
    30    23    18   ar
    31    11     5    1
    32    17    12   ar
    33     3     4    1
@<TRIPOS>MOLECULE
*****
 31 33 0 0 0
SMALL
GASTEIGER

@<TRIPOS>ATOM
      1 C          62.2564   88.9117   12.2634 C.2     1  UNL1        0.2494
      2 O          61.0877   89.4177   13.0559 O.2     1  UNL1       -0.2700
      3 N          63.6519   89.2976   12.6554 N.am    1  UNL1       -0.2991
      4 H          64.4189   88.9655   12.1353 H       1  UNL1        0.1500
      5 C          63.8787   90.1895   13.8399 C.3     1  UNL1        0.0907
      6 C          63.2902   88.9917   14.5246 C.3     1  UNL1        0.0250
      7 C          63.1055   88.9942   16.0133 C.3     1  UNL1        0.0194
      8 C          63.5094   90.1945   16.8171 C.3     1  UNL1        0.0723
      9 N          64.0979   91.3923   16.1323 N.3     1  UNL1       -0.2699
     10 C          64.5017   92.5927   16.9362 C.3     1  UNL1        0.0897
     11 C          64.2826   91.3898   14.6438 C.3     1  UNL1        0.0945
     12 C          64.3884   91.0776   12.7437 C.ar    1  UNL1       -0.0050
     13 C          63.6500   91.1598   11.4407 C.ar    1  UNL1       -0.0027
     14 C          64.1597   92.0479   10.3446 C.ar    1  UNL1       -0.0003
     15 C          65.4079   92.8537   10.5515 C.ar    1  UNL1       -0.0000
     16 C          66.1463   92.7715   11.8546 C.ar    1  UNL1       -0.0003
     17 C          65.6366   91.8834   12.9507 C.ar    1  UNL1       -0.0027
     18 C          61.4225   88.5772    9.8256 C.ar    1  UNL1        0.1434
     19 C          61.1957   87.6852    8.6412 C.ar    1  UNL1        0.0409
     20 C          61.5761   86.2359    8.7100 C.ar    1  UNL1        0.0749
     21 C          62.1833   85.6785    9.9632 C.ar    1  UNL1        0.0103
     22 C          62.4100   86.5704   11.1476 C.ar    1  UNL1        0.0325
     23 C          62.0296   88.0198   11.0789 C.ar    1  UNL1        0.0929
     24 C          61.3494   85.3440    7.5254 C.3     1  UNL1        0.4187
     25 F          61.1226   84.4520    6.3409 F       1  UNL1       -0.1659
     26 F          62.8117   85.0116    7.4958 F       1  UNL1       -0.1659
     27 F          59.8870   85.6764    7.5550 F       1  UNL1       -0.1659
     28 C          59.7762   90.5013   10.4064 C.3     1  UNL1        0.2525
     29 O          61.0421   90.0265    9.7569 O.3     1  UNL1       -0.4713
     30 S          63.0172   86.0130   12.4010 S.3     1  UNL1       -0.1125
     31 C          63.0505   84.5299   12.6229 C.3     1  UNL1        0.0742
@<TRIPOS>BOND
     1    28    29    1
     2    29    18    1
     3    18    19   ar
     4    19    20   ar
     5    20    24    1
     6    24    25    1
     7    24    26    1
     8    24    27    1
     9    20    21   ar
    10    21    22   ar
    11    22    30    1
    12    30    31    1
    13    22    23   ar
    14    23     1    1
    15     1     2    2
    16     1     3   am
    17     5     3    1
    18     5    12    1
    19    12    13   ar
    20    13    14   ar
    21    14    15   ar
    22    15    16   ar
    23    16    17   ar
    24     5     6    1
    25     6     7    1
    26     7     8    1
    27     8     9    1
    28     9    10    1
    29     9    11    1
    30    23    18   ar
    31    11     5    1
    32    17    12   ar
    33     3     4    1
@<TRIPOS>MOLECULE
*****
 31 33 0 0 0
SMALL
GASTEIGER

@<TRIPOS>ATOM
      1 C          63.7985   85.5261   13.4682 C.2     1  UNL1        0.2494
      2 O          65.0727   84.7353   13.4994 O.2     1  UNL1       -0.2700
      3 N          62.5823   84.9626   12.7949 N.am    1  UNL1       -0.2991
      4 H          61.7460   85.4817   12.7744 H       1  UNL1        0.1500
      5 C          62.6403   83.6084   12.1526 C.3     1  UNL1        0.0907
      6 C          62.7610   83.2177   13.5958 C.3     1  UNL1        0.0250
      7 C          62.8908   81.7716   13.9730 C.3     1  UNL1        0.0194
      8 C          62.8999   80.7164   12.9070 C.3     1  UNL1        0.0723
      9 N          62.7792   81.1071   11.4639 N.3     1  UNL1       -0.2699
     10 C          62.7884   80.0518   10.3978 C.3     1  UNL1        0.0897
     11 C          62.6495   82.5531   11.0866 C.3     1  UNL1        0.0945
     12 C          62.4995   84.4694   10.9324 C.ar    1  UNL1       -0.0050
     13 C          61.4347   85.5245   10.8780 C.ar    1  UNL1       -0.0027
     14 C          61.2939   86.3856    9.6578 C.ar    1  UNL1       -0.0003
     15 C          62.2179   86.1915    8.4922 C.ar    1  UNL1       -0.0000
     16 C          63.2827   85.1364    8.5467 C.ar    1  UNL1       -0.0003
     17 C          63.4235   84.2754    9.7669 C.ar    1  UNL1       -0.0027
     18 C          63.6101   88.1090   13.2598 C.ar    1  UNL1        0.1434
     19 C          63.5520   89.4632   13.9020 C.ar    1  UNL1        0.0409
     20 C          63.6243   89.5890   15.3950 C.ar    1  UNL1        0.0749
     21 C          63.7546   88.3605   16.2457 C.ar    1  UNL1        0.0103
     22 C          63.8127   87.0062   15.6035 C.ar    1  UNL1        0.0325
     23 C          63.7404   86.8805   14.1105 C.ar    1  UNL1        0.0929
     24 C          63.5662   90.9434   16.0373 C.3     1  UNL1        0.4187
     25 F          63.5081   92.2976   16.6795 F       1  UNL1       -0.1659
     26 F          63.4147   90.2986   17.3831 F       1  UNL1       -0.1659
     27 F          63.7176   91.5881   14.6914 F       1  UNL1       -0.1659
     28 C          62.7956   89.0091   10.9628 C.3     1  UNL1        0.2525
     29 O          63.5378   87.9832   11.7668 O.3     1  UNL1       -0.4713
     30 S          63.9430   85.7776   16.4542 S.3     1  UNL1       -0.1125
     31 C          62.7201   84.9996   16.8403 C.3     1  UNL1        0.0742
@<TRIPOS>BOND
     1    28    29    1
     2    29    18    1
     3    18    19   ar
     4    19    20   ar
     5    20    24    1
     6    24    25    1
     7    24    26    1
     8    24    27    1
     9    20    21   ar
    10    21    22   ar
    11    22    30    1
    12    30    31    1
    13    22    23   ar
    14    23     1    1
    15     1     2    2
    16     1     3   am
    17     5     3    1
    18     5    12    1
    19    12    13   ar
    20    13    14   ar
    21    14    15   ar
    22    15    16   ar
    23    16    17   ar
    24     5     6    1
    25     6     7    1
    26     7     8    1
    27     8     9    1
    28     9    10    1
    29     9    11    1
    30    23    18   ar
    31    11     5    1
    32    17    12   ar
    33     3     4    1
@<TRIPOS>MOLECULE
*****
 31 33 0 0 0
SMALL
GASTEIGER

@<TRIPOS>ATOM
      1 C          62.6249   88.9959   12.4048 C.2     1  UNL1        0.2494
      2 O          61.5875   89.8927   13.0126 O.2     1  UNL1       -0.2700
      3 N          64.0349   89.0262   12.9156 N.am    1  UNL1       -0.2991
      4 H          64.7158   88.4376   12.5166 H       1  UNL1        0.1500
      5 C          64.4076   89.9534   14.0342 C.3     1  UNL1        0.0907
      6 C          64.6016   90.8686   12.8618 C.3     1  UNL1        0.0250
      7 C          65.0559   92.2814   13.0803 C.3     1  UNL1        0.0194
      8 C          65.3163   92.7788   14.4712 C.3     1  UNL1        0.0723
      9 N          65.1223   91.8636   15.6437 N.3     1  UNL1       -0.2699
     10 C          65.3826   92.3611   17.0346 C.3     1  UNL1        0.0897
     11 C          64.6679   90.4509   15.4252 C.3     1  UNL1        0.0945
     12 C          64.0841   88.7161   14.8182 C.ar    1  UNL1       -0.0050
     13 C          64.7513   87.4166   14.4775 C.ar    1  UNL1       -0.0027
     14 C          64.4278   86.1793   15.2614 C.ar    1  UNL1       -0.0003
     15 C          63.4373   86.2417   16.3861 C.ar    1  UNL1       -0.0000
     16 C          62.7702   87.5412   16.7269 C.ar    1  UNL1       -0.0003
     17 C          63.0936   88.7785   15.9429 C.ar    1  UNL1       -0.0027
     18 C          62.5036   86.5958   11.4175 C.ar    1  UNL1        0.1434
     19 C          62.1310   85.6686   10.2988 C.ar    1  UNL1        0.0409
     20 C          61.5070   86.2144    9.0487 C.ar    1  UNL1        0.0749
     21 C          61.2556   87.6873    8.9173 C.ar    1  UNL1        0.0103
     22 C          61.6283   88.6144   10.0359 C.ar    1  UNL1        0.0325
     23 C          62.2522   88.0687   11.2861 C.ar    1  UNL1        0.0929
     24 C          61.1343   85.2872    7.9300 C.3     1  UNL1        0.4187
     25 F          60.7618   84.3600    6.8113 F       1  UNL1       -0.1659
     26 F          62.5571   84.8200    7.8433 F       1  UNL1       -0.1659
     27 F          59.7116   85.7543    8.0166 F       1  UNL1       -0.1659
     28 C          62.9959   84.5926   12.9970 C.3     1  UNL1        0.2525
     29 O          63.1276   86.0500   12.6676 O.3     1  UNL1       -0.4713
     30 S          61.3769   90.0874    9.9046 S.3     1  UNL1       -0.1125
     31 C          60.0660   90.6669   10.3467 C.3     1  UNL1        0.0742
@<TRIPOS>BOND
     1    28    29    1
     2    29    18    1
     3    18    19   ar
     4    19    20   ar
     5    20    24    1
     6    24    25    1
     7    24    26    1
     8    24    27    1
     9    20    21   ar
    10    21    22   ar
    11    22    30    1
    12    30    31    1
    13    22    23   ar
    14    23     1    1
    15     1     2    2
    16     1     3   am
    17     5     3    1
    18     5    12    1
    19    12    13   ar
    20    13    14   ar
    21    14    15   ar
    22    15    16   ar
    23    16    17   ar
    24     5     6    1
    25     6     7    1
    26     7     8    1
    27     8     9    1
    28     9    10    1
    29     9    11    1
    30    23    18   ar
    31    11     5    1
    32    17    12   ar
    33     3     4    1
@<TRIPOS>MOLECULE
*****
 31 33 0 0 0
SMALL
GASTEIGER

@<TRIPOS>ATOM
      1 C          63.4858   85.8854   13.3357 C.2     1  UNL1        0.2494
      2 O          64.8796   86.2069   13.7873 O.2     1  UNL1       -0.2700
      3 N          62.6222   86.9602   12.7448 N.am    1  UNL1       -0.2991
      4 H          61.7075   86.7491   12.4483 H       1  UNL1        0.1500
      5 C          63.1524   88.3564   12.6056 C.3     1  UNL1        0.0907
      6 C          63.7384   87.9867   13.9359 C.3     1  UNL1        0.0250
      7 C          64.5871   88.9733   14.6819 C.3     1  UNL1        0.0194
      8 C          64.8498   90.3295   14.0974 C.3     1  UNL1        0.0723
      9 N          64.2638   90.6992   12.7671 N.3     1  UNL1       -0.2699
     10 C          64.5265   92.0555   12.1826 C.3     1  UNL1        0.0897
     11 C          63.4151   89.7127   12.0211 C.3     1  UNL1        0.0945
     12 C          62.3823   88.2412   11.3235 C.ar    1  UNL1       -0.0050
     13 C          61.7123   89.4497   10.7399 C.ar    1  UNL1       -0.0027
     14 C          60.9421   89.3345    9.4579 C.ar    1  UNL1       -0.0003
     15 C          60.8421   88.0108    8.7595 C.ar    1  UNL1       -0.0000
     16 C          61.5121   86.8023    9.3430 C.ar    1  UNL1       -0.0003
     17 C          62.2822   86.9175   10.6251 C.ar    1  UNL1       -0.0027
     18 C          62.1945   84.0951   14.7059 C.ar    1  UNL1        0.1434
     19 C          61.6644   82.6989   14.8450 C.ar    1  UNL1        0.0409
     20 C          61.8953   81.6967   13.7531 C.ar    1  UNL1        0.0749
     21 C          62.6564   82.0907   12.5221 C.ar    1  UNL1        0.0103
     22 C          63.1866   83.4869   12.3830 C.ar    1  UNL1        0.0325
     23 C          62.9556   84.4891   13.4748 C.ar    1  UNL1        0.0929
     24 C          61.3651   80.3004   13.8923 C.3     1  UNL1        0.4187
     25 F          60.8349   78.9041   14.0315 F       1  UNL1       -0.1659
     26 F          62.7043   79.7525   13.4971 F       1  UNL1       -0.1659
     27 F          60.0258   80.8483   14.2875 F       1  UNL1       -0.1659
     28 C          63.0929   85.4963   16.7007 C.3     1  UNL1        0.2525
     29 O          61.9636   85.0974   15.7977 O.3     1  UNL1       -0.4713
     30 S          63.9477   83.8810   11.1519 S.3     1  UNL1       -0.1125
     31 C          64.2005   82.8718   10.0713 C.3     1  UNL1        0.0742
@<TRIPOS>BOND
     1    28    29    1
     2    29    18    1
     3    18    19   ar
     4    19    20   ar
     5    20    24    1
     6    24    25    1
     7    24    26    1
     8    24    27    1
     9    20    21   ar
    10    21    22   ar
    11    22    30    1
    12    30    31    1
    13    22    23   ar
    14    23     1    1
    15     1     2    2
    16     1     3   am
    17     5     3    1
    18     5    12    1
    19    12    13   ar
    20    13    14   ar
    21    14    15   ar
    22    15    16   ar
    23    16    17   ar
    24     5     6    1
    25     6     7    1
    26     7     8    1
    27     8     9    1
    28     9    10    1
    29     9    11    1
    30    23    18   ar
    31    11     5    1
    32    17    12   ar
    33     3     4    1
@<TRIPOS>MOLECULE
*****
 31 33 0 0 0
SMALL
GASTEIGER

@<TRIPOS>ATOM
      1 C          61.0743   87.6659   10.8642 C.2     1  UNL1        0.2494
      2 O          60.1188   87.0815   11.8618 O.2     1  UNL1       -0.2700
      3 N          62.5500   87.6338   11.1312 N.am    1  UNL1       -0.2991
      4 H          63.1772   88.0174   10.4764 H       1  UNL1        0.1500
      5 C          63.0702   87.0171   12.3958 C.3     1  UNL1        0.0907
      6 C          62.5052   85.7999   11.7256 C.3     1  UNL1        0.0250
      7 C          62.5938   84.4631   12.4003 C.3     1  UNL1        0.0194
      8 C          63.2474   84.3436   13.7451 C.3     1  UNL1        0.0723
      9 N          63.8124   85.5608   14.4152 N.3     1  UNL1       -0.2699
     10 C          64.4660   85.4413   15.7601 C.3     1  UNL1        0.0897
     11 C          63.7238   86.8976   13.7406 C.3     1  UNL1        0.0945
     12 C          63.4545   88.4486   12.6267 C.ar    1  UNL1       -0.0050
     13 C          64.0526   88.8622   13.9387 C.ar    1  UNL1       -0.0027
     14 C          64.4370   90.2936   14.1696 C.ar    1  UNL1       -0.0003
     15 C          64.2232   91.3113   13.0886 C.ar    1  UNL1       -0.0000
     16 C          63.6251   90.8977   11.7767 C.ar    1  UNL1       -0.0003
     17 C          63.2408   89.4663   11.5457 C.ar    1  UNL1       -0.0027
     18 C          60.1824   89.7355    9.5713 C.ar    1  UNL1        0.1434
     19 C          59.6623   90.3521    8.3067 C.ar    1  UNL1        0.0409
     20 C          59.5140   89.5158    7.0703 C.ar    1  UNL1        0.0749
     21 C          59.8859   88.0629    7.0986 C.ar    1  UNL1        0.0103
     22 C          60.4060   87.4463    8.3632 C.ar    1  UNL1        0.0325
     23 C          60.5542   88.2826    9.5996 C.ar    1  UNL1        0.0929
     24 C          58.9939   90.1324    5.8057 C.3     1  UNL1        0.4187
     25 F          58.4738   90.7491    4.5411 F       1  UNL1       -0.1659
     26 F          57.5872   89.8833    6.2628 F       1  UNL1       -0.1659
     27 F          60.4006   90.3816    5.3486 F       1  UNL1       -0.1659
     28 C          59.1670   90.7486   11.7375 C.3     1  UNL1        0.2525
     29 O          60.3306   90.5718   10.8077 O.3     1  UNL1       -0.4713
     30 S          60.7778   85.9934    8.3915 S.3     1  UNL1       -0.1125
     31 C          62.1851   85.5733    8.0862 C.3     1  UNL1        0.0742
@<TRIPOS>BOND
     1    28    29    1
     2    29    18    1
     3    18    19   ar
     4    19    20   ar
     5    20    24    1
     6    24    25    1
     7    24    26    1
     8    24    27    1
     9    20    21   ar
    10    21    22   ar
    11    22    30    1
    12    30    31    1
    13    22    23   ar
    14    23     1    1
    15     1     2    2
    16     1     3   am
    17     5     3    1
    18     5    12    1
    19    12    13   ar
    20    13    14   ar
    21    14    15   ar
    22    15    16   ar
    23    16    17   ar
    24     5     6    1
    25     6     7    1
    26     7     8    1
    27     8     9    1
    28     9    10    1
    29     9    11    1
    30    23    18   ar
    31    11     5    1
    32    17    12   ar
    33     3     4    1
