@<TRIPOS>MOLECULE
*****
 30 33 0 0 0
SMALL
GASTEIGER

@<TRIPOS>ATOM
      1 C          63.7741   88.5125   13.0658 C.2     1  UNL1        0.2532
      2 O          62.5376   88.2500   12.2582 O.2     1  UNL1       -0.2695
      3 N          64.4404   87.3894   13.8037 N.am    1  UNL1       -0.2987
      4 H          65.2519   87.5616   14.3337 H       1  UNL1        0.1498
      5 C          66.3815   95.8358   11.9726 C.3     1  UNL1        0.0537
      6 C          66.0486   94.5331   12.6377 C.ar    1  UNL1        0.0771
      7 N          66.3706   94.3278   14.0882 N.ar    1  UNL1       -0.1522
      8 N          66.0377   93.0251   14.7532 N.ar    1  UNL1       -0.1416
      9 C          65.3829   91.9278   13.9677 C.ar    1  UNL1        0.1333
     10 S          64.9400   90.5465   14.3498 S.2     1  UNL1       -0.0604
     11 C          64.3444   89.8982   13.1353 C.ar    1  UNL1        0.0971
     12 C          64.4191   90.8788   12.0027 C.ar    1  UNL1        0.0538
     13 N          63.9367   90.6459   10.6016 N.pl3   1  UNL1       -0.3564
     14 C          65.0610   92.1332   12.5172 C.ar    1  UNL1        0.0363
     15 C          65.3938   93.4358   11.8521 C.ar    1  UNL1       -0.0033
     16 C          65.0718   93.6411   10.4015 C.3     1  UNL1        0.0324
     17 H          63.5267   89.7844   10.3590 H       1  UNL1        0.1424
     18 H          64.0301   91.3546    9.9247 H       1  UNL1        0.1424
     19 C          63.8701   86.0038   13.7341 C.3     1  UNL1        0.1113
     20 C          63.1296   85.2124   12.6972 C.3     1  UNL1        0.1121
     21 N          63.0636   84.0443   13.6358 N.pl3   1  UNL1       -0.3023
     22 C          63.8041   84.8356   14.6728 C.3     1  UNL1        0.1121
     23 C          62.4934   82.6586   13.5663 C.ar    1  UNL1        0.0780
     24 C          61.4131   82.2434   14.5206 C.ar    1  UNL1        0.0170
     25 C          60.8429   80.8578   14.4511 C.ar    1  UNL1        0.0037
     26 C          61.3528   79.8873   13.4272 C.ar    1  UNL1        0.0321
     27 C          62.4330   80.3025   12.4729 C.ar    1  UNL1        0.1686
     28 F          62.9429   79.3321   11.4491 F       1  UNL1       -0.2018
     29 C          63.0033   81.6882   12.5424 C.ar    1  UNL1        0.1805
     30 F          64.0835   82.1034   11.5881 F       1  UNL1       -0.2005
@<TRIPOS>BOND
     1     5     6    1
     2     6     7   ar
     3     7     8   ar
     4     8     9   ar
     5     9    10   ar
     6    10    11   ar
     7    11     1    1
     8     1     2    2
     9     1     3   am
    10     3    19    1
    11    19    20    1
    12    20    21    1
    13    21    23    1
    14    23    24   ar
    15    24    25   ar
    16    25    26   ar
    17    26    27   ar
    18    27    28    1
    19    27    29   ar
    20    29    30    1
    21    21    22    1
    22    11    12   ar
    23    12    13    1
    24    12    14   ar
    25    14    15   ar
    26    15    16    1
    27    15     6   ar
    28    14     9   ar
    29    22    19    1
    30    29    23   ar
    31     3     4    1
    32    13    17    1
    33    13    18    1
@<TRIPOS>MOLECULE
*****
 30 33 0 0 0
SMALL
GASTEIGER

@<TRIPOS>ATOM
      1 C          60.0478   92.7182    2.6579 C.2     1  UNL1        0.2532
      2 O          61.4553   92.4022    3.0691 O.2     1  UNL1       -0.2695
      3 N          58.8962   92.2118    3.4748 N.am    1  UNL1       -0.2987
      4 H          57.9724   92.4192    3.2050 H       1  UNL1        0.1498
      5 C          58.4089   95.6954   -4.4184 C.3     1  UNL1        0.0537
      6 C          58.7927   95.6069   -2.9710 C.ar    1  UNL1        0.0771
      7 N          59.1171   96.8541   -2.2034 N.ar    1  UNL1       -0.1522
      8 N          59.5010   96.7655   -0.7561 N.ar    1  UNL1       -0.1416
      9 C          59.5603   95.4297   -0.0763 C.ar    1  UNL1        0.1333
     10 S          59.9040   95.0330    1.3289 S.2     1  UNL1       -0.0604
     11 C          59.7919   93.5406    1.4298 C.ar    1  UNL1        0.0971
     12 C          59.3790   93.0149    0.0869 C.ar    1  UNL1        0.0538
     13 N          59.1495   91.5746   -0.2636 N.pl3   1  UNL1       -0.3564
     14 C          59.2359   94.1825   -0.8439 C.ar    1  UNL1        0.0363
     15 C          58.8521   94.2711   -2.2912 C.ar    1  UNL1       -0.0033
     16 C          58.5276   93.0238   -3.0588 C.3     1  UNL1        0.0324
     17 H          59.2695   90.8765    0.4201 H       1  UNL1        0.1424
     18 H          58.8788   91.3275   -1.1773 H       1  UNL1        0.1424
     19 C          59.1521   91.3895    4.7029 C.3     1  UNL1        0.1113
     20 C          58.2933   90.7951    5.7794 C.3     1  UNL1        0.1121
     21 N          59.5141   90.2266    6.4397 N.pl3   1  UNL1       -0.3023
     22 C          60.3731   90.8209    5.3632 C.3     1  UNL1        0.1121
     23 C          59.7701   89.4042    7.6678 C.ar    1  UNL1        0.0780
     24 C          60.0842   90.0789    8.9702 C.ar    1  UNL1        0.0170
     25 C          60.3402   89.2566   10.1983 C.ar    1  UNL1        0.0037
     26 C          60.2821   87.7596   10.1241 C.ar    1  UNL1        0.0321
     27 C          59.9680   87.0848    8.8217 C.ar    1  UNL1        0.1686
     28 F          59.9100   85.5878    8.7475 F       1  UNL1       -0.2018
     29 C          59.7121   87.9072    7.5936 C.ar    1  UNL1        0.1805
     30 F          59.3980   87.2325    6.2912 F       1  UNL1       -0.2005
@<TRIPOS>BOND
     1     5     6    1
     2     6     7   ar
     3     7     8   ar
     4     8     9   ar
     5     9    10   ar
     6    10    11   ar
     7    11     1    1
     8     1     2    2
     9     1     3   am
    10     3    19    1
    11    19    20    1
    12    20    21    1
    13    21    23    1
    14    23    24   ar
    15    24    25   ar
    16    25    26   ar
    17    26    27   ar
    18    27    28    1
    19    27    29   ar
    20    29    30    1
    21    21    22    1
    22    11    12   ar
    23    12    13    1
    24    12    14   ar
    25    14    15   ar
    26    15    16    1
    27    15     6   ar
    28    14     9   ar
    29    22    19    1
    30    29    23   ar
    31     3     4    1
    32    13    17    1
    33    13    18    1
@<TRIPOS>MOLECULE
*****
 30 33 0 0 0
SMALL
GASTEIGER

@<TRIPOS>ATOM
      1 C          61.7498   87.1575   10.0854 C.2     1  UNL1        0.2532
      2 O          62.4440   88.4822    9.9711 O.2     1  UNL1       -0.2695
      3 N          60.5638   86.8550    9.2183 N.am    1  UNL1       -0.2987
      4 H          60.1081   85.9855    9.2933 H       1  UNL1        0.1498
      5 C          64.8304   83.0012   15.9895 C.3     1  UNL1        0.0537
      6 C          64.1272   83.3390   14.7084 C.ar    1  UNL1        0.0771
      7 N          63.5726   82.2442   13.8460 N.ar    1  UNL1       -0.1522
      8 N          62.8694   82.5821   12.5648 N.ar    1  UNL1       -0.1416
      9 C          62.7209   84.0147   12.1460 C.ar    1  UNL1        0.1333
     10 S          62.0818   84.6486   10.9461 S.2     1  UNL1       -0.0604
     11 C          62.2415   86.1352   11.0669 C.ar    1  UNL1        0.0971
     12 C          62.9793   86.4201   12.3415 C.ar    1  UNL1        0.0538
     13 N          63.3548   87.7772   12.8584 N.pl3   1  UNL1       -0.3564
     14 C          63.2755   85.1095   13.0084 C.ar    1  UNL1        0.0363
     15 C          63.9787   84.7717   14.2896 C.ar    1  UNL1       -0.0033
     16 C          64.5334   85.8666   15.1520 C.3     1  UNL1        0.0324
     17 H          63.1149   88.5829   12.3460 H       1  UNL1        0.1424
     18 H          63.8413   87.8623   13.7101 H       1  UNL1        0.1424
     19 C          60.0721   87.8772    8.2368 C.3     1  UNL1        0.1113
     20 C          59.3696   87.8243    6.9127 C.3     1  UNL1        0.1121
     21 N          59.3768   89.3228    6.8489 N.pl3   1  UNL1       -0.3023
     22 C          60.0794   89.3758    8.1731 C.3     1  UNL1        0.1121
     23 C          58.8851   90.3451    5.8674 C.ar    1  UNL1        0.0780
     24 C          57.4129   90.5835    5.7070 C.ar    1  UNL1        0.0170
     25 C          56.9212   91.6057    4.7256 C.ar    1  UNL1        0.0037
     26 C          57.9017   92.3897    3.9046 C.ar    1  UNL1        0.0321
     27 C          59.3739   92.1514    4.0650 C.ar    1  UNL1        0.1686
     28 F          60.3544   92.9353    3.2441 F       1  UNL1       -0.2018
     29 C          59.8656   91.1291    5.0465 C.ar    1  UNL1        0.1805
     30 F          61.3379   90.8907    5.2069 F       1  UNL1       -0.2005
@<TRIPOS>BOND
     1     5     6    1
     2     6     7   ar
     3     7     8   ar
     4     8     9   ar
     5     9    10   ar
     6    10    11   ar
     7    11     1    1
     8     1     2    2
     9     1     3   am
    10     3    19    1
    11    19    20    1
    12    20    21    1
    13    21    23    1
    14    23    24   ar
    15    24    25   ar
    16    25    26   ar
    17    26    27   ar
    18    27    28    1
    19    27    29   ar
    20    29    30    1
    21    21    22    1
    22    11    12   ar
    23    12    13    1
    24    12    14   ar
    25    14    15   ar
    26    15    16    1
    27    15     6   ar
    28    14     9   ar
    29    22    19    1
    30    29    23   ar
    31     3     4    1
    32    13    17    1
    33    13    18    1
@<TRIPOS>MOLECULE
*****
 30 33 0 0 0
SMALL
GASTEIGER

@<TRIPOS>ATOM
      1 C          61.6907   86.9246   10.1295 C.2     1  UNL1        0.2532
      2 O          62.4609   88.2061   10.0093 O.2     1  UNL1       -0.2695
      3 N          60.4827   86.6923    9.2712 N.am    1  UNL1       -0.2987
      4 H          59.9772   85.8512    9.3501 H       1  UNL1        0.1498
      5 C          64.3773   80.6578   14.0197 C.3     1  UNL1        0.0537
      6 C          63.7795   82.0049   13.7403 C.ar    1  UNL1        0.0771
      7 N          63.3423   82.8816   14.8761 N.ar    1  UNL1       -0.1522
      8 N          62.7445   84.2287   14.5967 N.ar    1  UNL1       -0.1416
      9 C          62.5839   84.6990   13.1815 C.ar    1  UNL1        0.1333
     10 S          62.0323   85.9678   12.6019 S.2     1  UNL1       -0.0604
     11 C          62.1286   85.8752   11.1079 C.ar    1  UNL1        0.0971
     12 C          62.7397   84.5492   10.7641 C.ar    1  UNL1        0.0538
     13 N          63.0202   84.0396    9.3815 N.pl3   1  UNL1       -0.3564
     14 C          63.0210   83.8223   12.0457 C.ar    1  UNL1        0.0363
     15 C          63.6189   82.4752   12.3251 C.ar    1  UNL1       -0.0033
     16 C          64.0560   81.5985   11.1891 C.3     1  UNL1        0.0324
     17 H          62.7987   84.5936    8.5983 H       1  UNL1        0.1424
     18 H          63.4257   83.1512    9.2571 H       1  UNL1        0.1424
     19 C          60.0448   87.7416    8.2929 C.3     1  UNL1        0.1113
     20 C          60.0856   89.2405    8.2560 C.3     1  UNL1        0.1121
     21 N          59.4256   89.2255    6.9092 N.pl3   1  UNL1       -0.3023
     22 C          59.3847   87.7265    6.9460 C.3     1  UNL1        0.1121
     23 C          58.9877   90.2748    5.9308 C.ar    1  UNL1        0.0780
     24 C          57.5276   90.5628    5.7433 C.ar    1  UNL1        0.0170
     25 C          57.0897   91.6120    4.7649 C.ar    1  UNL1        0.0037
     26 C          58.1119   92.3733    3.9739 C.ar    1  UNL1        0.0321
     27 C          59.5720   92.0853    4.1614 C.ar    1  UNL1        0.1686
     28 F          60.5942   92.8465    3.3704 F       1  UNL1       -0.2018
     29 C          60.0099   91.0360    5.1398 C.ar    1  UNL1        0.1805
     30 F          61.4700   90.7480    5.3273 F       1  UNL1       -0.2005
@<TRIPOS>BOND
     1     5     6    1
     2     6     7   ar
     3     7     8   ar
     4     8     9   ar
     5     9    10   ar
     6    10    11   ar
     7    11     1    1
     8     1     2    2
     9     1     3   am
    10     3    19    1
    11    19    20    1
    12    20    21    1
    13    21    23    1
    14    23    24   ar
    15    24    25   ar
    16    25    26   ar
    17    26    27   ar
    18    27    28    1
    19    27    29   ar
    20    29    30    1
    21    21    22    1
    22    11    12   ar
    23    12    13    1
    24    12    14   ar
    25    14    15   ar
    26    15    16    1
    27    15     6   ar
    28    14     9   ar
    29    22    19    1
    30    29    23   ar
    31     3     4    1
    32    13    17    1
    33    13    18    1
@<TRIPOS>MOLECULE
*****
 30 33 0 0 0
SMALL
GASTEIGER

@<TRIPOS>ATOM
      1 C          61.7927   86.7438   10.1336 C.2     1  UNL1        0.2532
      2 O          62.7291   87.8861    9.8724 O.2     1  UNL1       -0.2695
      3 N          60.4901   86.6578    9.3949 N.am    1  UNL1       -0.2987
      4 H          59.8755   85.9080    9.5663 H       1  UNL1        0.1498
      5 C          64.0848   80.4034   14.1548 C.3     1  UNL1        0.0537
      6 C          63.5622   81.7753   13.8468 C.ar    1  UNL1        0.0771
      7 N          63.1515   82.6895   14.9628 N.ar    1  UNL1       -0.1522
      8 N          62.6289   84.0613   14.6547 N.ar    1  UNL1       -0.1416
      9 C          62.5171   84.5190   13.2307 C.ar    1  UNL1        0.1333
     10 S          62.0419   85.8061   12.6244 S.2     1  UNL1       -0.0604
     11 C          62.1589   85.6874   11.1337 C.ar    1  UNL1        0.0971
     12 C          62.7065   84.3270   10.8186 C.ar    1  UNL1        0.0538
     13 N          62.9840   83.7839    9.4482 N.pl3   1  UNL1       -0.3564
     14 C          62.9279   83.6049   12.1147 C.ar    1  UNL1        0.0363
     15 C          63.4504   82.2330   12.4227 C.ar    1  UNL1       -0.0033
     16 C          63.8612   81.3188   11.3066 C.3     1  UNL1        0.0324
     17 H          62.8049   84.3373    8.6539 H       1  UNL1        0.1424
     18 H          63.3452   82.8741    9.3431 H       1  UNL1        0.1424
     19 C          60.1239   87.7141    8.3949 C.3     1  UNL1        0.1113
     20 C          59.6380   87.7084    6.9758 C.3     1  UNL1        0.1121
     21 N          59.6060   89.2080    6.9807 N.pl3   1  UNL1       -0.3023
     22 C          60.0919   89.2138    8.3998 C.3     1  UNL1        0.1121
     23 C          59.2398   90.2644    5.9807 C.ar    1  UNL1        0.0780
     24 C          60.3152   90.9834    5.2215 C.ar    1  UNL1        0.0170
     25 C          59.9491   92.0398    4.2215 C.ar    1  UNL1        0.0037
     26 C          58.5075   92.3772    3.9807 C.ar    1  UNL1        0.0321
     27 C          57.4320   91.6582    4.7400 C.ar    1  UNL1        0.1686
     28 F          55.9904   91.9955    4.4992 F       1  UNL1       -0.2018
     29 C          57.7982   90.6018    5.7400 C.ar    1  UNL1        0.1805
     30 F          56.7228   89.8828    6.4992 F       1  UNL1       -0.2005
@<TRIPOS>BOND
     1     5     6    1
     2     6     7   ar
     3     7     8   ar
     4     8     9   ar
     5     9    10   ar
     6    10    11   ar
     7    11     1    1
     8     1     2    2
     9     1     3   am
    10     3    19    1
    11    19    20    1
    12    20    21    1
    13    21    23    1
    14    23    24   ar
    15    24    25   ar
    16    25    26   ar
    17    26    27   ar
    18    27    28    1
    19    27    29   ar
    20    29    30    1
    21    21    22    1
    22    11    12   ar
    23    12    13    1
    24    12    14   ar
    25    14    15   ar
    26    15    16    1
    27    15     6   ar
    28    14     9   ar
    29    22    19    1
    30    29    23   ar
    31     3     4    1
    32    13    17    1
    33    13    18    1
@<TRIPOS>MOLECULE
*****
 30 33 0 0 0
SMALL
GASTEIGER

@<TRIPOS>ATOM
      1 C          61.8815   86.9907   10.1479 C.2     1  UNL1        0.2532
      2 O          62.7437   88.1880    9.8775 O.2     1  UNL1       -0.2695
      3 N          60.5900   86.8135    9.4059 N.am    1  UNL1       -0.2987
      4 H          60.0241   86.0277    9.5835 H       1  UNL1        0.1498
      5 C          64.6452   82.8426   16.2126 C.3     1  UNL1        0.0537
      6 C          63.9942   83.1800   14.9040 C.ar    1  UNL1        0.0771
      7 N          63.4360   82.0880   14.0404 N.ar    1  UNL1       -0.1522
      8 N          62.7850   82.4254   12.7318 N.ar    1  UNL1       -0.1416
      9 C          62.6923   83.8548   12.2867 C.ar    1  UNL1        0.1333
     10 S          62.1115   84.4875   11.0570 S.2     1  UNL1       -0.0604
     11 C          62.3108   85.9706   11.1605 C.ar    1  UNL1        0.0971
     12 C          63.0148   86.2545   12.4542 C.ar    1  UNL1        0.0538
     13 N          63.4131   87.6083   12.9626 N.pl3   1  UNL1       -0.3564
     14 C          63.2506   84.9468   13.1503 C.ar    1  UNL1        0.0363
     15 C          63.9016   84.6094   14.4589 C.ar    1  UNL1       -0.0033
     16 C          64.4599   85.7016   15.3224 C.3     1  UNL1        0.0324
     17 H          63.2137   88.4122   12.4305 H       1  UNL1        0.1424
     18 H          63.8740   87.6930   13.8285 H       1  UNL1        0.1424
     19 C          60.1607   87.8335    8.3935 C.3     1  UNL1        0.1113
     20 C          60.1311   89.3324    8.3447 C.3     1  UNL1        0.1121
     21 N          59.5536   89.2761    6.9616 N.pl3   1  UNL1       -0.3023
     22 C          59.5832   87.7772    7.0102 C.3     1  UNL1        0.1121
     23 C          59.1243   90.2962    5.9490 C.ar    1  UNL1        0.0780
     24 C          60.1535   91.0365    5.1474 C.ar    1  UNL1        0.0170
     25 C          59.7243   92.0565    4.1349 C.ar    1  UNL1        0.0037
     26 C          58.2657   92.3363    3.9240 C.ar    1  UNL1        0.0321
     27 C          57.2365   91.5959    4.7256 C.ar    1  UNL1        0.1686
     28 F          55.7780   91.8756    4.5147 F       1  UNL1       -0.2018
     29 C          57.6658   90.5759    5.7381 C.ar    1  UNL1        0.1805
     30 F          56.6366   89.8355    6.5397 F       1  UNL1       -0.2005
@<TRIPOS>BOND
     1     5     6    1
     2     6     7   ar
     3     7     8   ar
     4     8     9   ar
     5     9    10   ar
     6    10    11   ar
     7    11     1    1
     8     1     2    2
     9     1     3   am
    10     3    19    1
    11    19    20    1
    12    20    21    1
    13    21    23    1
    14    23    24   ar
    15    24    25   ar
    16    25    26   ar
    17    26    27   ar
    18    27    28    1
    19    27    29   ar
    20    29    30    1
    21    21    22    1
    22    11    12   ar
    23    12    13    1
    24    12    14   ar
    25    14    15   ar
    26    15    16    1
    27    15     6   ar
    28    14     9   ar
    29    22    19    1
    30    29    23   ar
    31     3     4    1
    32    13    17    1
    33    13    18    1
@<TRIPOS>MOLECULE
*****
 30 33 0 0 0
SMALL
GASTEIGER

@<TRIPOS>ATOM
      1 C          64.2755   85.5234   13.8751 C.2     1  UNL1        0.2532
      2 O          65.5732   85.7112   14.6034 O.2     1  UNL1       -0.2695
      3 N          63.5269   86.7155   13.3569 N.am    1  UNL1       -0.2987
      4 H          62.6752   86.5923   12.8788 H       1  UNL1        0.1498
      5 C          62.0600   78.4025   11.4239 C.3     1  UNL1        0.0537
      6 C          62.2327   79.6137   12.2917 C.ar    1  UNL1        0.0771
      7 N          61.6268   79.6460   13.6635 N.ar    1  UNL1       -0.1522
      8 N          61.7995   80.8572   14.5314 N.ar    1  UNL1       -0.1416
      9 C          62.5781   82.0361   14.0275 C.ar    1  UNL1        0.1333
     10 S          62.9132   83.3585   14.6512 S.2     1  UNL1       -0.0604
     11 C          63.7262   84.1435   13.6649 C.ar    1  UNL1        0.0971
     12 C          63.8936   83.3063   12.4316 C.ar    1  UNL1        0.0538
     13 N          64.6396   83.7019   11.1919 N.pl3   1  UNL1       -0.3564
     14 C          63.1840   82.0038   12.6557 C.ar    1  UNL1        0.0363
     15 C          63.0113   80.7926   11.7878 C.ar    1  UNL1       -0.0033
     16 C          63.6173   80.7604   10.4160 C.3     1  UNL1        0.0324
     17 H          65.0749   84.5834   11.1396 H       1  UNL1        0.1424
     18 H          64.6939   83.0802   10.4305 H       1  UNL1        0.1424
     19 C          64.0762   88.0954   13.5671 C.3     1  UNL1        0.1113
     20 C          63.9649   89.4033   12.8412 C.3     1  UNL1        0.1121
     21 N          64.8529   90.0468   13.8644 N.pl3   1  UNL1       -0.3023
     22 C          64.9643   88.7389   14.5903 C.3     1  UNL1        0.1121
     23 C          65.4022   91.4268   14.0746 C.ar    1  UNL1        0.0780
     24 C          65.7750   91.8835   15.4539 C.ar    1  UNL1        0.0170
     25 C          66.3243   93.2633   15.6641 C.ar    1  UNL1        0.0037
     26 C          66.5008   94.1865   14.4951 C.ar    1  UNL1        0.0321
     27 C          66.1280   93.7298   13.1158 C.ar    1  UNL1        0.1686
     28 F          66.3045   94.6529   11.9468 F       1  UNL1       -0.2018
     29 C          65.5787   92.3499   12.9056 C.ar    1  UNL1        0.1805
     30 F          65.2059   91.8932   11.5263 F       1  UNL1       -0.2005
@<TRIPOS>BOND
     1     5     6    1
     2     6     7   ar
     3     7     8   ar
     4     8     9   ar
     5     9    10   ar
     6    10    11   ar
     7    11     1    1
     8     1     2    2
     9     1     3   am
    10     3    19    1
    11    19    20    1
    12    20    21    1
    13    21    23    1
    14    23    24   ar
    15    24    25   ar
    16    25    26   ar
    17    26    27   ar
    18    27    28    1
    19    27    29   ar
    20    29    30    1
    21    21    22    1
    22    11    12   ar
    23    12    13    1
    24    12    14   ar
    25    14    15   ar
    26    15    16    1
    27    15     6   ar
    28    14     9   ar
    29    22    19    1
    30    29    23   ar
    31     3     4    1
    32    13    17    1
    33    13    18    1
@<TRIPOS>MOLECULE
*****
 30 33 0 0 0
SMALL
GASTEIGER

@<TRIPOS>ATOM
      1 C          60.7463   92.3382    3.0410 C.2     1  UNL1        0.2532
      2 O          62.0904   91.8240    3.4642 O.2     1  UNL1       -0.2695
      3 N          59.5172   91.9405    3.8032 N.am    1  UNL1       -0.2987
      4 H          58.6350   92.2779    3.5255 H       1  UNL1        0.1498
      5 C          61.6187   96.8434   -3.3281 C.3     1  UNL1        0.0537
      6 C          60.9869   96.1434   -2.1616 C.ar    1  UNL1        0.0771
      7 N          59.5242   96.3229   -1.8816 N.ar    1  UNL1       -0.1522
      8 N          58.8924   95.6229   -0.7151 N.ar    1  UNL1       -0.1416
      9 C          59.7232   94.7434    0.1715 C.ar    1  UNL1        0.1333
     10 S          59.3806   93.9315    1.3853 S.2     1  UNL1       -0.0604
     11 C          60.6314   93.2502    1.8556 C.ar    1  UNL1        0.0971
     12 C          61.7472   93.6409    0.9324 C.ar    1  UNL1        0.0538
     13 N          63.1738   93.1884    1.0324 N.pl3   1  UNL1       -0.3564
     14 C          61.1858   94.5638   -0.1085 C.ar    1  UNL1        0.0363
     15 C          61.8177   95.2638   -1.2750 C.ar    1  UNL1       -0.0033
     16 C          63.2804   95.0842   -1.5549 C.3     1  UNL1        0.0324
     17 H          63.4472   92.5784    1.7552 H       1  UNL1        0.1424
     18 H          63.8367   93.5013    0.3753 H       1  UNL1        0.1424
     19 C          59.6321   91.0285    4.9886 C.3     1  UNL1        0.1113
     20 C          60.7706   90.4477    5.7735 C.3     1  UNL1        0.1121
     21 N          59.7946   89.7388    6.6649 N.pl3   1  UNL1       -0.3023
     22 C          58.6559   90.3196    5.8800 C.3     1  UNL1        0.1121
     23 C          59.9094   88.8268    7.8503 C.ar    1  UNL1        0.0780
     24 C          59.8860   87.3395    7.6573 C.ar    1  UNL1        0.0170
     25 C          60.0008   86.4275    8.8426 C.ar    1  UNL1        0.0037
     26 C          60.1392   87.0028   10.2210 C.ar    1  UNL1        0.0321
     27 C          60.1627   88.4902   10.4140 C.ar    1  UNL1        0.1686
     28 F          60.3010   89.0655   11.7923 F       1  UNL1       -0.2018
     29 C          60.0478   89.4022    9.2286 C.ar    1  UNL1        0.1805
     30 F          60.0712   90.8895    9.4216 F       1  UNL1       -0.2005
@<TRIPOS>BOND
     1     5     6    1
     2     6     7   ar
     3     7     8   ar
     4     8     9   ar
     5     9    10   ar
     6    10    11   ar
     7    11     1    1
     8     1     2    2
     9     1     3   am
    10     3    19    1
    11    19    20    1
    12    20    21    1
    13    21    23    1
    14    23    24   ar
    15    24    25   ar
    16    25    26   ar
    17    26    27   ar
    18    27    28    1
    19    27    29   ar
    20    29    30    1
    21    21    22    1
    22    11    12   ar
    23    12    13    1
    24    12    14   ar
    25    14    15   ar
    26    15    16    1
    27    15     6   ar
    28    14     9   ar
    29    22    19    1
    30    29    23   ar
    31     3     4    1
    32    13    17    1
    33    13    18    1
@<TRIPOS>MOLECULE
*****
 30 33 0 0 0
SMALL
GASTEIGER

@<TRIPOS>ATOM
      1 C          64.1544   84.8147   13.2072 C.2     1  UNL1        0.2532
      2 O          65.1442   84.8355   14.3341 O.2     1  UNL1       -0.2695
      3 N          63.4800   86.0838   12.7778 N.am    1  UNL1       -0.2987
      4 H          62.8304   86.0702   12.0382 H       1  UNL1        0.1498
      5 C          62.2460   77.5431   10.9477 C.3     1  UNL1        0.0537
      6 C          62.6632   78.9827   10.8901 C.ar    1  UNL1        0.0771
      7 N          62.9514   79.6277    9.5669 N.ar    1  UNL1       -0.1522
      8 N          63.3686   81.0673    9.5092 N.ar    1  UNL1       -0.1416
      9 C          63.4977   81.8620   10.7748 C.ar    1  UNL1        0.1333
     10 S          63.8867   83.2882   11.0293 S.2     1  UNL1       -0.0604
     11 C          63.8390   83.5246   12.5098 C.ar    1  UNL1        0.0971
     12 C          63.4204   82.2446   13.1703 C.ar    1  UNL1        0.0538
     13 N          63.2438   82.0298   14.6443 N.pl3   1  UNL1       -0.3564
     14 C          63.2095   81.2171   12.0980 C.ar    1  UNL1        0.0363
     15 C          62.7923   79.7774   12.1557 C.ar    1  UNL1       -0.0033
     16 C          62.5041   79.1325   13.4790 C.3     1  UNL1        0.0324
     17 H          63.4070   82.7700   15.2727 H       1  UNL1        0.1424
     18 H          62.9647   81.1487   14.9834 H       1  UNL1        0.1424
     19 C          63.7954   87.3738   13.4752 C.3     1  UNL1        0.1113
     20 C          64.2924   87.7477   14.8401 C.3     1  UNL1        0.1121
     21 N          64.2415   89.1981   14.4615 N.pl3   1  UNL1       -0.3023
     22 C          63.7446   88.8243   13.0964 C.3     1  UNL1        0.1121
     23 C          64.5570   90.4881   15.1589 C.ar    1  UNL1        0.0780
     24 C          63.7619   90.9049   16.3607 C.ar    1  UNL1        0.0170
     25 C          64.0773   92.1949   17.0581 C.ar    1  UNL1        0.0037
     26 C          65.1878   93.0682   16.5537 C.ar    1  UNL1        0.0321
     27 C          65.9828   92.6514   15.3520 C.ar    1  UNL1        0.1686
     28 F          67.0932   93.5247   14.8476 F       1  UNL1       -0.2018
     29 C          65.6674   91.3614   14.6545 C.ar    1  UNL1        0.1805
     30 F          66.4624   90.9446   13.4528 F       1  UNL1       -0.2005
@<TRIPOS>BOND
     1     5     6    1
     2     6     7   ar
     3     7     8   ar
     4     8     9   ar
     5     9    10   ar
     6    10    11   ar
     7    11     1    1
     8     1     2    2
     9     1     3   am
    10     3    19    1
    11    19    20    1
    12    20    21    1
    13    21    23    1
    14    23    24   ar
    15    24    25   ar
    16    25    26   ar
    17    26    27   ar
    18    27    28    1
    19    27    29   ar
    20    29    30    1
    21    21    22    1
    22    11    12   ar
    23    12    13    1
    24    12    14   ar
    25    14    15   ar
    26    15    16    1
    27    15     6   ar
    28    14     9   ar
    29    22    19    1
    30    29    23   ar
    31     3     4    1
    32    13    17    1
    33    13    18    1
