@<TRIPOS>MOLECULE
*****
 36 40 0 0 0
SMALL
GASTEIGER

@<TRIPOS>ATOM
      1 C          62.3567   88.7110   11.5631 C.3     1  UNL1        0.0403
      2 C          61.5674   89.4155   10.4998 C.3     1  UNL1        0.0116
      3 C          60.8499   88.6217    9.4485 C.3     1  UNL1        0.0342
      4 C          60.7932   90.1206    9.4578 C.3     1  UNL1        0.0034
      5 C          60.9218   87.1234    9.4605 C.3     1  UNL1        0.0070
      6 C          60.1167   86.6114    8.3032 C.3     1  UNL1        0.0039
      7 C          59.5472   87.7931    7.5759 C.3     1  UNL1        0.0395
      8 C          60.0003   89.0355    8.2837 C.3     1  UNL1        0.1411
      9 O          60.1858   90.4834    8.6291 O.3     1  UNL1       -0.3753
     10 C          61.7113   86.4190   10.5239 C.3     1  UNL1        0.0187
     11 C          61.7832   84.9208   10.5360 C.3     1  UNL1        0.0087
     12 C          62.5726   84.2164   11.5993 C.3     1  UNL1        0.0264
     13 C          63.2901   85.0102   12.6506 C.2     1  UNL1       -0.0239
     14 C          64.0794   84.3057   13.7139 C.2     1  UNL1        0.0329
     15 C          64.7968   85.0995   14.7651 C.2     1  UNL1        0.1731
     16 O          65.5862   84.3951   15.8285 O.2     1  UNL1       -0.2913
     17 C          64.7249   86.5978   14.7531 C.3     1  UNL1        0.0738
     18 C          63.9355   87.3022   13.6898 C.3     1  UNL1        0.0335
     19 C          63.2181   86.5084   12.6385 C.2     1  UNL1       -0.0332
     20 C          62.4287   87.2128   11.5752 C.2     1  UNL1       -0.0450
     21 H          59.7058   91.0325    7.9896 H       1  UNL1        0.2114
     22 C          64.5090   91.0923   14.7170 C.ar    1  UNL1        0.0479
     23 C          65.0308   91.0656   13.3110 C.ar    1  UNL1        0.0142
     24 C          64.3134   90.2719   12.2597 C.ar    1  UNL1       -0.0027
     25 C          63.0742   89.5048   12.6144 C.ar    1  UNL1       -0.0187
     26 C          62.5524   89.5315   14.0205 C.ar    1  UNL1       -0.0027
     27 C          63.2698   90.3253   15.0718 C.ar    1  UNL1        0.0142
     28 C          64.5150   92.2753   17.0302 C.3     1  UNL1        0.1122
     29 N          65.2265   91.8861   15.7683 N.pl3   1  UNL1       -0.3041
     30 C          66.6554   92.2907   15.5577 C.3     1  UNL1        0.1122
     31 C          59.2109   89.7400    7.2204 C.1     1  UNL1       -0.0658
     32 C          58.4215   90.4444    6.1571 C.1     1  UNL1       -0.0908
     33 C          57.6321   91.1488    5.0937 C.3     1  UNL1        0.0541
     34 C          56.3929   90.4289    5.5368 C.3     1  UNL1        0.0130
     35 C          58.8712   91.8686    4.6506 C.3     1  UNL1        0.0130
     36 C          56.8427   91.8531    4.0304 C.3     1  UNL1        0.0130
@<TRIPOS>BOND
     1    28    29    1
     2    29    30    1
     3    29    22    1
     4    22    23   ar
     5    23    24   ar
     6    24    25   ar
     7     1    25    1
     8     1     2    1
     9     2     3    1
    10     3     4    1
    11     3     5    1
    12     5     6    1
    13     6     7    1
    14     7     8    1
    15     8     9    1
    16     8    31    1
    17    31    32    3
    18    32    33    1
    19    33    34    1
    20    33    35    1
    21    33    36    1
    22     5    10    1
    23    10    11    1
    24    11    12    1
    25    12    13    1
    26    13    14    2
    27    14    15    1
    28    15    16    2
    29    15    17    1
    30    17    18    1
    31    18    19    1
    32    19    20    2
    33    25    26   ar
    34    26    27   ar
    35    27    22   ar
    36    20     1    1
    37     8     3    1
    38    20    10    1
    39    19    13    1
    40     9    21    1
@<TRIPOS>MOLECULE
*****
 36 40 0 0 0
SMALL
GASTEIGER

@<TRIPOS>ATOM
      1 C          60.7084   93.9264   -2.8215 C.3     1  UNL1        0.0403
      2 C          59.6704   93.3054   -3.7086 C.3     1  UNL1        0.0116
      3 C          58.4026   92.7658   -3.1157 C.3     1  UNL1        0.0342
      4 C          58.6558   92.6961   -4.5926 C.3     1  UNL1        0.0034
      5 C          58.1727   92.8473   -1.6357 C.3     1  UNL1        0.0070
      6 C          56.8357   92.2352   -1.3399 C.3     1  UNL1        0.0039
      7 C          56.2392   91.7754   -2.6371 C.3     1  UNL1        0.0395
      8 C          57.2076   92.1034   -3.7346 C.3     1  UNL1        0.1411
      9 O          57.8166   92.2213   -5.1003 O.3     1  UNL1       -0.3753
     10 C          59.2107   93.4684   -0.7486 C.3     1  UNL1        0.0187
     11 C          58.9809   93.5499    0.7315 C.3     1  UNL1        0.0087
     12 C          60.0188   94.1709    1.6186 C.3     1  UNL1        0.0264
     13 C          61.2866   94.7105    1.0257 C.2     1  UNL1       -0.0239
     14 C          62.3245   95.3315    1.9128 C.2     1  UNL1        0.0329
     15 C          63.5923   95.8711    1.3199 C.2     1  UNL1        0.1731
     16 O          64.6303   96.4922    2.2070 O.2     1  UNL1       -0.2913
     17 C          63.8222   95.7896   -0.1602 C.3     1  UNL1        0.0738
     18 C          62.7843   95.1686   -1.0473 C.3     1  UNL1        0.0335
     19 C          61.5165   94.6290   -0.4544 C.2     1  UNL1       -0.0332
     20 C          60.4785   94.0079   -1.3415 C.2     1  UNL1       -0.0450
     21 H          57.2127   91.8415   -5.7575 H       1  UNL1        0.2114
     22 C          64.5117   95.5452   -4.6002 C.ar    1  UNL1        0.0479
     23 C          64.4266   94.1028   -4.1975 C.ar    1  UNL1        0.0142
     24 C          63.1589   93.5632   -3.6046 C.ar    1  UNL1       -0.0027
     25 C          61.9762   94.4660   -3.4144 C.ar    1  UNL1       -0.0187
     26 C          62.0613   95.9084   -3.8172 C.ar    1  UNL1       -0.0027
     27 C          63.3290   96.4480   -4.4101 C.ar    1  UNL1        0.0142
     28 C          66.7457   96.8445   -4.3333 C.3     1  UNL1        0.1122
     29 N          65.7796   96.0848   -5.1932 N.pl3   1  UNL1       -0.3041
     30 C          66.0811   95.8648   -6.6460 C.3     1  UNL1        0.1122
     31 C          56.1696   91.4823   -4.6217 C.1     1  UNL1       -0.0658
     32 C          55.1317   90.8613   -5.5088 C.1     1  UNL1       -0.0908
     33 C          54.0937   90.2402   -6.3959 C.3     1  UNL1        0.0541
     34 C          53.6281   89.3867   -5.2536 C.3     1  UNL1        0.0130
     35 C          54.5592   91.0936   -7.5382 C.3     1  UNL1        0.0130
     36 C          53.0558   89.6191   -7.2829 C.3     1  UNL1        0.0130
@<TRIPOS>BOND
     1    28    29    1
     2    29    30    1
     3    29    22    1
     4    22    23   ar
     5    23    24   ar
     6    24    25   ar
     7     1    25    1
     8     1     2    1
     9     2     3    1
    10     3     4    1
    11     3     5    1
    12     5     6    1
    13     6     7    1
    14     7     8    1
    15     8     9    1
    16     8    31    1
    17    31    32    3
    18    32    33    1
    19    33    34    1
    20    33    35    1
    21    33    36    1
    22     5    10    1
    23    10    11    1
    24    11    12    1
    25    12    13    1
    26    13    14    2
    27    14    15    1
    28    15    16    2
    29    15    17    1
    30    17    18    1
    31    18    19    1
    32    19    20    2
    33    25    26   ar
    34    26    27   ar
    35    27    22   ar
    36    20     1    1
    37     8     3    1
    38    20    10    1
    39    19    13    1
    40     9    21    1
@<TRIPOS>MOLECULE
*****
 36 40 0 0 0
SMALL
GASTEIGER

@<TRIPOS>ATOM
      1 C          60.2614   94.2463   -2.3052 C.3     1  UNL1        0.0403
      2 C          59.7312   93.6640   -1.0285 C.3     1  UNL1        0.0116
      3 C          60.6679   93.3595    0.1029 C.3     1  UNL1        0.0342
      4 C          59.1971   93.0908    0.2238 C.3     1  UNL1        0.0034
      5 C          62.1347   93.6373   -0.0425 C.3     1  UNL1        0.0070
      6 C          62.8112   93.2363    1.2348 C.3     1  UNL1        0.0039
      7 C          61.7624   92.7107    2.1695 C.3     1  UNL1        0.0395
      8 C          60.4378   92.7868    1.4699 C.3     1  UNL1        0.1411
      9 O          58.9664   92.6708    1.2025 O.3     1  UNL1       -0.3753
     10 C          62.6649   94.2196   -1.3192 C.3     1  UNL1        0.0187
     11 C          64.1318   94.4974   -1.4645 C.3     1  UNL1        0.0087
     12 C          64.6620   95.0797   -2.7411 C.3     1  UNL1        0.0264
     13 C          63.7253   95.3842   -3.8725 C.2     1  UNL1       -0.0239
     14 C          64.2555   95.9664   -5.1492 C.2     1  UNL1        0.0329
     15 C          63.3188   96.2709   -6.2805 C.2     1  UNL1        0.1731
     16 O          63.8490   96.8532   -7.5572 O.2     1  UNL1       -0.2913
     17 C          61.8519   95.9931   -6.1351 C.3     1  UNL1        0.0738
     18 C          61.3217   95.4108   -4.8585 C.3     1  UNL1        0.0335
     19 C          62.2584   95.1064   -3.7272 C.2     1  UNL1       -0.0332
     20 C          61.7282   94.5241   -2.4505 C.2     1  UNL1       -0.0450
     21 H          58.5246   92.2978    1.9813 H       1  UNL1        0.2114
     22 C          57.4514   95.1598   -5.6992 C.ar    1  UNL1        0.0479
     23 C          58.0307   93.7837   -5.5548 C.ar    1  UNL1        0.0142
     24 C          58.9673   93.4792   -4.4235 C.ar    1  UNL1       -0.0027
     25 C          59.3247   94.5508   -3.4366 C.ar    1  UNL1       -0.0187
     26 C          58.7454   95.9268   -3.5810 C.ar    1  UNL1       -0.0027
     27 C          57.8087   96.2314   -4.7123 C.ar    1  UNL1        0.0142
     28 C          55.6365   94.3839   -7.3887 C.3     1  UNL1        0.1122
     29 N          56.5147   95.4643   -6.8306 N.pl3   1  UNL1       -0.3041
     30 C          56.4563   96.8492   -7.4039 C.3     1  UNL1        0.1122
     31 C          59.9076   92.2046    2.7466 C.1     1  UNL1       -0.0658
     32 C          59.3774   91.6223    4.0232 C.1     1  UNL1       -0.0908
     33 C          58.8472   91.0400    5.3000 C.3     1  UNL1        0.0541
     34 C          57.4952   91.6172    5.0017 C.3     1  UNL1        0.0130
     35 C          60.1992   90.4628    5.5982 C.3     1  UNL1        0.0130
     36 C          58.3170   90.4578    6.5766 C.3     1  UNL1        0.0130
@<TRIPOS>BOND
     1    28    29    1
     2    29    30    1
     3    29    22    1
     4    22    23   ar
     5    23    24   ar
     6    24    25   ar
     7     1    25    1
     8     1     2    1
     9     2     3    1
    10     3     4    1
    11     3     5    1
    12     5     6    1
    13     6     7    1
    14     7     8    1
    15     8     9    1
    16     8    31    1
    17    31    32    3
    18    32    33    1
    19    33    34    1
    20    33    35    1
    21    33    36    1
    22     5    10    1
    23    10    11    1
    24    11    12    1
    25    12    13    1
    26    13    14    2
    27    14    15    1
    28    15    16    2
    29    15    17    1
    30    17    18    1
    31    18    19    1
    32    19    20    2
    33    25    26   ar
    34    26    27   ar
    35    27    22   ar
    36    20     1    1
    37     8     3    1
    38    20    10    1
    39    19    13    1
    40     9    21    1
@<TRIPOS>MOLECULE
*****
 36 40 0 0 0
SMALL
GASTEIGER

@<TRIPOS>ATOM
      1 C          58.5964   95.1150   -2.3408 C.3     1  UNL1        0.0403
      2 C          57.1220   95.1692   -2.6111 C.3     1  UNL1        0.0116
      3 C          56.6151   95.7737   -3.8869 C.3     1  UNL1        0.0342
      4 C          55.6677   95.2169   -2.8659 C.3     1  UNL1        0.0034
      5 C          57.5826   96.3240   -4.8924 C.3     1  UNL1        0.0070
      6 C          56.7937   96.8557   -6.0520 C.3     1  UNL1        0.0039
      7 C          55.3386   96.6341   -5.7632 C.3     1  UNL1        0.0395
      8 C          55.2282   95.9654   -4.4251 C.3     1  UNL1        0.1411
      9 O          54.6373   95.3280   -3.2026 O.3     1  UNL1       -0.3753
     10 C          59.0571   96.2697   -4.6221 C.3     1  UNL1        0.0187
     11 C          60.0247   96.8200   -5.6276 C.3     1  UNL1        0.0087
     12 C          61.4991   96.7657   -5.3573 C.3     1  UNL1        0.0264
     13 C          62.0060   96.1612   -4.0815 C.2     1  UNL1       -0.0239
     14 C          63.4805   96.1070   -3.8112 C.2     1  UNL1        0.0329
     15 C          63.9873   95.5025   -2.5355 C.2     1  UNL1        0.1731
     16 O          65.4618   95.4482   -2.2651 O.2     1  UNL1       -0.2913
     17 C          63.0197   94.9522   -1.5300 C.3     1  UNL1        0.0738
     18 C          61.5453   95.0065   -1.8002 C.3     1  UNL1        0.0335
     19 C          61.0385   95.6110   -3.0760 C.2     1  UNL1       -0.0332
     20 C          59.5640   95.6652   -3.3463 C.2     1  UNL1       -0.0450
     21 H          53.6705   95.3143   -3.2803 H       1  UNL1        0.2114
     22 C          60.1171   93.3016    1.4866 C.ar    1  UNL1        0.0479
     23 C          59.8840   92.4332    0.2860 C.ar    1  UNL1        0.0142
     24 C          59.3771   93.0376   -0.9898 C.ar    1  UNL1       -0.0027
     25 C          59.1033   94.5105   -1.0650 C.ar    1  UNL1       -0.0187
     26 C          59.3365   95.3789    0.1356 C.ar    1  UNL1       -0.0027
     27 C          59.8434   94.7745    1.4114 C.ar    1  UNL1        0.0142
     28 C          62.0767   92.3505    2.9028 C.3     1  UNL1        0.1122
     29 N          60.6241   92.6971    2.7624 N.pl3   1  UNL1       -0.3041
     30 C          59.6783   92.4393    3.8978 C.3     1  UNL1        0.1122
     31 C          53.7537   96.0197   -4.6954 C.1     1  UNL1       -0.0658
     32 C          52.2793   96.0739   -4.9657 C.1     1  UNL1       -0.0908
     33 C          50.8048   96.1282   -5.2360 C.3     1  UNL1        0.0541
     34 C          51.0745   96.1074   -6.7115 C.3     1  UNL1        0.0130
     35 C          50.5350   96.1489   -3.7607 C.3     1  UNL1        0.0130
     36 C          49.3304   96.1824   -5.5064 C.3     1  UNL1        0.0130
@<TRIPOS>BOND
     1    28    29    1
     2    29    30    1
     3    29    22    1
     4    22    23   ar
     5    23    24   ar
     6    24    25   ar
     7     1    25    1
     8     1     2    1
     9     2     3    1
    10     3     4    1
    11     3     5    1
    12     5     6    1
    13     6     7    1
    14     7     8    1
    15     8     9    1
    16     8    31    1
    17    31    32    3
    18    32    33    1
    19    33    34    1
    20    33    35    1
    21    33    36    1
    22     5    10    1
    23    10    11    1
    24    11    12    1
    25    12    13    1
    26    13    14    2
    27    14    15    1
    28    15    16    2
    29    15    17    1
    30    17    18    1
    31    18    19    1
    32    19    20    2
    33    25    26   ar
    34    26    27   ar
    35    27    22   ar
    36    20     1    1
    37     8     3    1
    38    20    10    1
    39    19    13    1
    40     9    21    1
@<TRIPOS>MOLECULE
*****
 36 40 0 0 0
SMALL
GASTEIGER

@<TRIPOS>ATOM
      1 C          60.0710   93.7099    0.8167 C.3     1  UNL1        0.0403
      2 C          59.7138   92.9410    2.0541 C.3     1  UNL1        0.0116
      3 C          60.7848   92.2421    2.8382 C.3     1  UNL1        0.0342
      4 C          59.3496   92.1870    3.2711 C.3     1  UNL1        0.0034
      5 C          62.2129   92.3120    2.3847 C.3     1  UNL1        0.0070
      6 C          63.0461   91.5278    3.3544 C.3     1  UNL1        0.0039
      7 C          62.1330   90.9731    4.4073 C.3     1  UNL1        0.0395
      8 C          60.7354   91.4146    4.0882 C.3     1  UNL1        0.1411
      9 O          59.2492   91.5954    4.1807 O.3     1  UNL1       -0.3753
     10 C          62.5700   93.0809    1.1472 C.3     1  UNL1        0.0187
     11 C          63.9981   93.1508    0.6937 C.3     1  UNL1        0.0087
     12 C          64.3553   93.9197   -0.5437 C.3     1  UNL1        0.0264
     13 C          63.2844   94.6186   -1.3278 C.2     1  UNL1       -0.0239
     14 C          63.6415   95.3874   -2.5652 C.2     1  UNL1        0.0329
     15 C          62.5706   96.0863   -3.3491 C.2     1  UNL1        0.1731
     16 O          62.9278   96.8552   -4.5867 O.2     1  UNL1       -0.2913
     17 C          61.1425   96.0164   -2.8957 C.3     1  UNL1        0.0738
     18 C          60.7853   95.2476   -1.6582 C.3     1  UNL1        0.0335
     19 C          61.8563   94.5487   -0.8743 C.2     1  UNL1       -0.0332
     20 C          61.4991   93.7798    0.3632 C.2     1  UNL1       -0.0450
     21 H          58.9146   91.1279    4.9619 H       1  UNL1        0.2114
     22 C          56.8583   95.8065   -1.5353 C.ar    1  UNL1        0.0479
     23 C          57.7574   96.5927   -0.6278 C.ar    1  UNL1        0.0142
     24 C          58.8283   95.8938    0.1562 C.ar    1  UNL1       -0.0027
     25 C          59.0001   94.4088    0.0327 C.ar    1  UNL1       -0.0187
     26 C          58.1009   93.6227   -0.8748 C.ar    1  UNL1       -0.0027
     27 C          57.0300   94.3216   -1.6588 C.ar    1  UNL1        0.0142
     28 C          54.4848   96.8556   -1.6630 C.3     1  UNL1        0.1122
     29 N          55.7873   96.5055   -2.3194 N.pl3   1  UNL1       -0.3041
     30 C          56.0190   96.8543   -3.7598 C.3     1  UNL1        0.1122
     31 C          60.3782   90.6457    5.3257 C.1     1  UNL1       -0.0658
     32 C          60.0211   89.8769    6.5631 C.1     1  UNL1       -0.0908
     33 C          59.6640   89.1080    7.8007 C.3     1  UNL1        0.0541
     34 C          58.8800   88.1355    6.9702 C.3     1  UNL1        0.0130
     35 C          60.4479   90.0805    8.6311 C.3     1  UNL1        0.0130
     36 C          59.3068   88.3392    9.0381 C.3     1  UNL1        0.0130
@<TRIPOS>BOND
     1    28    29    1
     2    29    30    1
     3    29    22    1
     4    22    23   ar
     5    23    24   ar
     6    24    25   ar
     7     1    25    1
     8     1     2    1
     9     2     3    1
    10     3     4    1
    11     3     5    1
    12     5     6    1
    13     6     7    1
    14     7     8    1
    15     8     9    1
    16     8    31    1
    17    31    32    3
    18    32    33    1
    19    33    34    1
    20    33    35    1
    21    33    36    1
    22     5    10    1
    23    10    11    1
    24    11    12    1
    25    12    13    1
    26    13    14    2
    27    14    15    1
    28    15    16    2
    29    15    17    1
    30    17    18    1
    31    18    19    1
    32    19    20    2
    33    25    26   ar
    34    26    27   ar
    35    27    22   ar
    36    20     1    1
    37     8     3    1
    38    20    10    1
    39    19    13    1
    40     9    21    1
