@<TRIPOS>MOLECULE
*****
 35 39 0 0 0
SMALL
GASTEIGER

@<TRIPOS>ATOM
      1 C          61.2579   89.0039   11.5649 C.2     1  UNL1        0.2470
      2 O          60.4052   89.4515   12.7149 O.2     1  UNL1       -0.2820
      3 C          61.8222   90.0151   10.6114 C.2     1  UNL1        0.2880
      4 O          61.1748   90.2290    9.2753 O.2     1  UNL1       -0.2664
      5 N          63.0337   90.8123   10.9940 N.am    1  UNL1       -0.2700
      6 C          63.6811   90.5983   12.3302 C.3     1  UNL1        0.1153
      7 C          64.8927   91.3956   12.7128 C.3     1  UNL1        0.1152
      8 N          65.4570   92.4068   11.7593 N.am    1  UNL1       -0.2726
      9 C          66.6686   93.2040   12.1419 C.2     1  UNL1        0.2491
     10 O          67.2329   94.2152   11.1884 O.2     1  UNL1       -0.2699
     11 C          64.8097   92.6207   10.4232 C.3     1  UNL1        0.1152
     12 C          63.5981   91.8235   10.0406 C.3     1  UNL1        0.1153
     13 C          67.3159   92.9901   13.4780 C.ar    1  UNL1        0.0536
     14 C          68.5319   92.1190   13.5914 C.ar    1  UNL1        0.0045
     15 C          69.1792   91.9051   14.9276 C.ar    1  UNL1        0.0001
     16 C          68.6106   92.5622   16.1503 C.ar    1  UNL1        0.0000
     17 C          67.3948   93.4332   16.0368 C.ar    1  UNL1        0.0001
     18 C          66.7475   93.6471   14.7008 C.ar    1  UNL1        0.0045
     19 C          63.3785   87.0548   13.3467 C.2     1  UNL1        0.1448
     20 C          64.2377   85.9946   13.9693 C.2     1  UNL1        0.1335
     21 N          64.2141   84.5962   13.4275 N.2     1  UNL1       -0.2211
     22 C          63.3313   84.2578   12.2628 C.2     1  UNL1        0.1799
     23 C          62.4721   85.3180   11.6403 C.2     1  UNL1        0.1058
     24 N          61.5082   85.2822   10.4915 N.2     1  UNL1       -0.2445
     25 C          60.9361   86.6586   10.3234 C.2     1  UNL1        0.0984
     26 C          61.5463   87.5450   11.3683 C.2     1  UNL1        0.0531
     27 C          62.4956   86.7165   12.1822 C.3     1  UNL1        0.1284
     28 N          63.3078   82.8593   11.7210 N.ar    1  UNL1       -0.1894
     29 C          63.8182   82.4250   10.3790 C.ar    1  UNL1        0.2027
     30 N          63.5956   80.9468   10.2546 N.ar    1  UNL1       -0.2072
     31 C          62.9476   80.4676   11.5197 C.ar    1  UNL1        0.1613
     32 C          62.5476   79.0545   11.8250 C.3     1  UNL1        0.0756
     33 N          62.7697   81.6496   12.4260 N.ar    1  UNL1       -0.1474
     34 C          63.8399   88.7029   15.3015 C.3     1  UNL1        0.2521
     35 O          63.4020   88.4533   13.8887 O.2     1  UNL1       -0.4734
@<TRIPOS>BOND
     1    34    35    1
     2    35    19    1
     3    19    20    2
     4    20    21    1
     5    21    22    2
     6    22    28    1
     7    28    29   ar
     8    29    30   ar
     9    30    31   ar
    10    31    32    1
    11    31    33   ar
    12    22    23    1
    13    23    24    2
    14    24    25    1
    15    25    26    2
    16    26     1    1
    17     1     2    2
    18     1     3    1
    19     3     4    2
    20     3     5   am
    21     5     6    1
    22     6     7    1
    23     7     8    1
    24     8     9   am
    25     9    10    2
    26     9    13    1
    27    13    14   ar
    28    14    15   ar
    29    15    16   ar
    30    16    17   ar
    31    17    18   ar
    32     8    11    1
    33    11    12    1
    34    26    27    1
    35    27    19    1
    36    33    28   ar
    37    27    23    1
    38    12     5    1
    39    18    13   ar
@<TRIPOS>MOLECULE
*****
 35 39 0 0 0
SMALL
GASTEIGER

@<TRIPOS>ATOM
      1 C          62.5746   89.5746   15.0618 C.2     1  UNL1        0.2470
      2 O          61.0890   89.6827   14.8851 O.2     1  UNL1       -0.2820
      3 C          63.1441   88.5838   16.0334 C.2     1  UNL1        0.2880
      4 O          63.4311   88.9986   17.4460 O.2     1  UNL1       -0.2664
      5 N          63.4266   87.1783   15.5924 N.am    1  UNL1       -0.2700
      6 C          63.1396   86.7634   14.1797 C.3     1  UNL1        0.1153
      7 C          63.4221   85.3578   13.7387 C.3     1  UNL1        0.1152
      8 N          63.9917   84.3670   14.7103 N.am    1  UNL1       -0.2726
      9 C          64.2742   82.9615   14.2693 C.2     1  UNL1        0.2491
     10 O          64.8438   81.9707   15.2410 O.2     1  UNL1       -0.2699
     11 C          64.2787   84.7819   16.1229 C.3     1  UNL1        0.1152
     12 C          63.9961   86.1875   16.5639 C.3     1  UNL1        0.1153
     13 C          63.9872   82.5466   12.8567 C.ar    1  UNL1        0.0536
     14 C          63.0888   81.3762   12.5865 C.ar    1  UNL1        0.0045
     15 C          62.8018   80.9614   11.1738 C.ar    1  UNL1        0.0001
     16 C          63.4132   81.7170   10.0314 C.ar    1  UNL1        0.0000
     17 C          64.3116   82.8873   10.3015 C.ar    1  UNL1        0.0001
     18 C          64.5986   83.3021   11.7141 C.ar    1  UNL1        0.0045
     19 C          62.4250   90.2642   11.7493 C.2     1  UNL1        0.1448
     20 C          62.5765   90.7224   10.3291 C.2     1  UNL1        0.1335
     21 N          63.6921   91.6531    9.9562 N.2     1  UNL1       -0.2211
     22 C          64.6564   92.1257   11.0036 C.2     1  UNL1        0.1799
     23 C          64.5048   91.6675   12.4238 C.2     1  UNL1        0.1058
     24 N          65.2958   91.9631   13.6636 N.2     1  UNL1       -0.2445
     25 C          64.6690   91.2150   14.8026 C.2     1  UNL1        0.0984
     26 C          63.4906   90.4571   14.2669 C.2     1  UNL1        0.0531
     27 C          63.3891   90.7368   12.7967 C.3     1  UNL1        0.1284
     28 N          65.7720   93.0564   10.6307 N.ar    1  UNL1       -0.1894
     29 C          67.2071   92.6733   10.4211 C.ar    1  UNL1        0.2027
     30 N          67.9704   93.9138   10.0628 N.ar    1  UNL1       -0.2072
     31 C          67.0071   95.0636   10.0508 C.ar    1  UNL1        0.1613
     32 C          67.3434   96.4925    9.7421 C.3     1  UNL1        0.0756
     33 N          65.6484   94.5337   10.4018 N.ar    1  UNL1       -0.1474
     34 C          59.9139   89.6060   11.6441 C.3     1  UNL1        0.2521
     35 O          61.3093   89.3335   12.1221 O.2     1  UNL1       -0.4734
@<TRIPOS>BOND
     1    34    35    1
     2    35    19    1
     3    19    20    2
     4    20    21    1
     5    21    22    2
     6    22    28    1
     7    28    29   ar
     8    29    30   ar
     9    30    31   ar
    10    31    32    1
    11    31    33   ar
    12    22    23    1
    13    23    24    2
    14    24    25    1
    15    25    26    2
    16    26     1    1
    17     1     2    2
    18     1     3    1
    19     3     4    2
    20     3     5   am
    21     5     6    1
    22     6     7    1
    23     7     8    1
    24     8     9   am
    25     9    10    2
    26     9    13    1
    27    13    14   ar
    28    14    15   ar
    29    15    16   ar
    30    16    17   ar
    31    17    18   ar
    32     8    11    1
    33    11    12    1
    34    26    27    1
    35    27    19    1
    36    33    28   ar
    37    27    23    1
    38    12     5    1
    39    18    13   ar
@<TRIPOS>MOLECULE
*****
 35 39 0 0 0
SMALL
GASTEIGER

@<TRIPOS>ATOM
      1 C          62.7455   89.9835   13.3843 C.2     1  UNL1        0.2470
      2 O          61.2606   89.9012   13.1884 O.2     1  UNL1       -0.2820
      3 C          63.3955   89.2396   14.5131 C.2     1  UNL1        0.2880
      4 O          63.8003   89.9710   15.7586 O.2     1  UNL1       -0.2664
      5 N          63.6406   87.7645   14.3963 N.am    1  UNL1       -0.2700
      6 C          63.2358   87.0331   13.1508 C.3     1  UNL1        0.1153
      7 C          63.4811   85.5579   13.0341 C.3     1  UNL1        0.1152
      8 N          64.1311   84.8140   14.1629 N.am    1  UNL1       -0.2726
      9 C          64.3763   83.3388   14.0462 C.2     1  UNL1        0.2491
     10 O          65.0263   82.5949   15.1750 O.2     1  UNL1       -0.2699
     11 C          64.5359   85.5453   15.4084 C.3     1  UNL1        0.1152
     12 C          64.2906   87.0205   15.5251 C.3     1  UNL1        0.1153
     13 C          63.9715   82.6074   12.8007 C.ar    1  UNL1        0.0536
     14 C          64.3875   83.1278   11.4567 C.ar    1  UNL1        0.0045
     15 C          63.9826   82.3964   10.2112 C.ar    1  UNL1        0.0001
     16 C          63.1619   81.1447   10.3097 C.ar    1  UNL1        0.0000
     17 C          62.7459   80.6244   11.6536 C.ar    1  UNL1        0.0001
     18 C          63.1507   81.3558   12.8991 C.ar    1  UNL1        0.0045
     19 C          65.1778   92.1970   14.1932 C.2     1  UNL1        0.1448
     20 C          66.2776   93.2129   14.2847 C.2     1  UNL1        0.1335
     21 N          66.8502   93.8131   13.0350 N.2     1  UNL1       -0.2211
     22 C          66.3230   93.3973   11.6936 C.2     1  UNL1        0.1799
     23 C          65.2232   92.3814   11.6021 C.2     1  UNL1        0.1058
     24 N          64.5068   91.7808   10.4291 N.2     1  UNL1       -0.2445
     25 C          63.4914   90.8094   10.9539 C.2     1  UNL1        0.0984
     26 C          63.5803   90.8097   12.4513 C.2     1  UNL1        0.0531
     27 C          64.6506   91.7813   12.8519 C.3     1  UNL1        0.1284
     28 N          66.8956   93.9975   10.4438 N.ar    1  UNL1       -0.1894
     29 C          67.7005   93.2726    9.4062 C.ar    1  UNL1        0.2027
     30 N          68.0662   94.2551    8.3334 N.ar    1  UNL1       -0.2072
     31 C          67.4873   95.5872    8.7080 C.ar    1  UNL1        0.1613
     32 C          67.6103   96.8559    7.9172 C.3     1  UNL1        0.0756
     33 N          66.7639   95.4281   10.0123 N.ar    1  UNL1       -0.1474
     34 C          64.7646   92.3046   16.7560 C.3     1  UNL1        0.2521
     35 O          64.6053   91.5969   15.4430 O.2     1  UNL1       -0.4734
@<TRIPOS>BOND
     1    34    35    1
     2    35    19    1
     3    19    20    2
     4    20    21    1
     5    21    22    2
     6    22    28    1
     7    28    29   ar
     8    29    30   ar
     9    30    31   ar
    10    31    32    1
    11    31    33   ar
    12    22    23    1
    13    23    24    2
    14    24    25    1
    15    25    26    2
    16    26     1    1
    17     1     2    2
    18     1     3    1
    19     3     4    2
    20     3     5   am
    21     5     6    1
    22     6     7    1
    23     7     8    1
    24     8     9   am
    25     9    10    2
    26     9    13    1
    27    13    14   ar
    28    14    15   ar
    29    15    16   ar
    30    16    17   ar
    31    17    18   ar
    32     8    11    1
    33    11    12    1
    34    26    27    1
    35    27    19    1
    36    33    28   ar
    37    27    23    1
    38    12     5    1
    39    18    13   ar
@<TRIPOS>MOLECULE
*****
 35 39 0 0 0
SMALL
GASTEIGER

@<TRIPOS>ATOM
      1 C          61.4149   95.2600   -1.0071 C.2     1  UNL1        0.2470
      2 O          62.1495   96.5479   -0.7799 O.2     1  UNL1       -0.2820
      3 C          61.2197   94.7439   -2.4020 C.2     1  UNL1        0.2880
      4 O          62.3833   94.1815   -3.1633 O.2     1  UNL1       -0.2664
      5 N          59.8609   94.7902   -3.0354 N.am    1  UNL1       -0.2700
      6 C          58.6971   95.3526   -2.2741 C.3     1  UNL1        0.1153
      7 C          57.3383   95.3989   -2.9076 C.3     1  UNL1        0.1152
      8 N          57.1431   94.8828   -4.3025 N.am    1  UNL1       -0.2726
      9 C          55.7842   94.9291   -4.9360 C.2     1  UNL1        0.2491
     10 O          55.5890   94.4130   -6.3309 O.2     1  UNL1       -0.2699
     11 C          58.3067   94.3204   -5.0638 C.3     1  UNL1        0.1152
     12 C          59.6656   94.2741   -4.4303 C.3     1  UNL1        0.1153
     13 C          54.6206   95.4915   -4.1747 C.ar    1  UNL1        0.0536
     14 C          53.5738   96.2936   -4.8895 C.ar    1  UNL1        0.0045
     15 C          52.4101   96.8560   -4.1281 C.ar    1  UNL1        0.0001
     16 C          52.2932   96.6163   -2.6520 C.ar    1  UNL1        0.0000
     17 C          53.3400   95.8142   -1.9373 C.ar    1  UNL1        0.0001
     18 C          54.5036   95.2518   -2.6986 C.ar    1  UNL1        0.0045
     19 C          63.1491   93.3668    1.2017 C.2     1  UNL1        0.1448
     20 C          63.6762   92.4831    2.2931 C.2     1  UNL1        0.1335
     21 N          62.7346   91.8924    3.3002 N.2     1  UNL1       -0.2211
     22 C          61.2659   92.1852    3.2160 C.2     1  UNL1        0.1799
     23 C          60.7388   93.0689    2.1245 C.2     1  UNL1        0.1058
     24 N          59.3519   93.5323    1.7901 N.2     1  UNL1       -0.2445
     25 C          59.4364   94.4095    0.5763 C.2     1  UNL1        0.0984
     26 C          60.8755   94.4882    0.1605 C.2     1  UNL1        0.0531
     27 C          61.6804   93.6597    1.1173 C.3     1  UNL1        0.1284
     28 N          60.3243   91.5944    4.2232 N.ar    1  UNL1       -0.1894
     29 C          58.9025   92.0136    4.4530 C.ar    1  UNL1        0.2027
     30 N          58.3388   91.1589    5.5493 N.ar    1  UNL1       -0.2072
     31 C          59.4122   90.2115    5.9968 C.ar    1  UNL1        0.1613
     32 C          59.2814   89.1766    7.0748 C.3     1  UNL1        0.0756
     33 N          60.6393   90.4807    5.1773 N.ar    1  UNL1       -0.1474
     34 C          65.0077   95.0765    0.5911 C.3     1  UNL1        0.2521
     35 O          64.0907   93.9575    0.1945 O.2     1  UNL1       -0.4734
@<TRIPOS>BOND
     1    34    35    1
     2    35    19    1
     3    19    20    2
     4    20    21    1
     5    21    22    2
     6    22    28    1
     7    28    29   ar
     8    29    30   ar
     9    30    31   ar
    10    31    32    1
    11    31    33   ar
    12    22    23    1
    13    23    24    2
    14    24    25    1
    15    25    26    2
    16    26     1    1
    17     1     2    2
    18     1     3    1
    19     3     4    2
    20     3     5   am
    21     5     6    1
    22     6     7    1
    23     7     8    1
    24     8     9   am
    25     9    10    2
    26     9    13    1
    27    13    14   ar
    28    14    15   ar
    29    15    16   ar
    30    16    17   ar
    31    17    18   ar
    32     8    11    1
    33    11    12    1
    34    26    27    1
    35    27    19    1
    36    33    28   ar
    37    27    23    1
    38    12     5    1
    39    18    13   ar
@<TRIPOS>MOLECULE
*****
 35 39 0 0 0
SMALL
GASTEIGER

@<TRIPOS>ATOM
      1 C          60.8813   89.3208   11.2075 C.2     1  UNL1        0.2470
      2 O          59.5550   89.6732   11.8129 O.2     1  UNL1       -0.2820
      3 C          61.5879   90.3058   10.3240 C.2     1  UNL1        0.2880
      4 O          61.0653   90.5872    8.9464 O.2     1  UNL1       -0.2664
      5 N          62.8171   91.0092   10.8180 N.am    1  UNL1       -0.2700
      6 C          63.3397   90.7278   12.1956 C.3     1  UNL1        0.1153
      7 C          64.5690   91.4313   12.6897 C.3     1  UNL1        0.1152
      8 N          65.2756   92.4163   11.8062 N.am    1  UNL1       -0.2726
      9 C          66.5048   93.1198   12.3002 C.2     1  UNL1        0.2491
     10 O          67.2114   94.1048   11.4167 O.2     1  UNL1       -0.2699
     11 C          64.7530   92.6977   10.4286 C.3     1  UNL1        0.1152
     12 C          63.5237   91.9942    9.9346 C.3     1  UNL1        0.1153
     13 C          67.0274   92.8384   13.6777 C.ar    1  UNL1        0.0536
     14 C          66.1648   93.1037   14.8759 C.ar    1  UNL1        0.0045
     15 C          66.6875   92.8222   16.2535 C.ar    1  UNL1        0.0001
     16 C          68.0727   92.2755   16.4329 C.ar    1  UNL1        0.0000
     17 C          68.9352   92.0101   15.2348 C.ar    1  UNL1        0.0001
     18 C          68.4126   92.2916   13.8572 C.ar    1  UNL1        0.0045
     19 C          61.3517   86.7655    9.0349 C.2     1  UNL1        0.1448
     20 C          61.6682   85.5059    8.2845 C.2     1  UNL1        0.1335
     21 N          62.3241   84.3568    8.9909 N.2     1  UNL1       -0.2211
     22 C          62.6636   84.4672   10.4479 C.2     1  UNL1        0.1799
     23 C          62.3471   85.7268   11.1983 C.2     1  UNL1        0.1058
     24 N          62.5624   86.1239   12.6287 N.2     1  UNL1       -0.2445
     25 C          62.0395   87.5186   12.8062 C.2     1  UNL1        0.0984
     26 C          61.5010   87.9834   11.4855 C.2     1  UNL1        0.0531
     27 C          61.6911   86.8760   10.4918 C.3     1  UNL1        0.1284
     28 N          63.3195   83.3179   11.1543 N.ar    1  UNL1       -0.1894
     29 C          64.6942   82.7836   10.8809 C.ar    1  UNL1        0.2027
     30 N          64.9402   81.6367   11.8158 N.ar    1  UNL1       -0.2072
     31 C          63.7175   81.4622   12.6671 C.ar    1  UNL1        0.1613
     32 C          63.5294   80.4299   13.7390 C.3     1  UNL1        0.0756
     33 N          62.7159   82.5012   12.2583 N.ar    1  UNL1       -0.1474
     34 C          59.2951   87.7756    7.8102 C.3     1  UNL1        0.2521
     35 O          60.6958   87.9147    8.3284 O.2     1  UNL1       -0.4734
@<TRIPOS>BOND
     1    34    35    1
     2    35    19    1
     3    19    20    2
     4    20    21    1
     5    21    22    2
     6    22    28    1
     7    28    29   ar
     8    29    30   ar
     9    30    31   ar
    10    31    32    1
    11    31    33   ar
    12    22    23    1
    13    23    24    2
    14    24    25    1
    15    25    26    2
    16    26     1    1
    17     1     2    2
    18     1     3    1
    19     3     4    2
    20     3     5   am
    21     5     6    1
    22     6     7    1
    23     7     8    1
    24     8     9   am
    25     9    10    2
    26     9    13    1
    27    13    14   ar
    28    14    15   ar
    29    15    16   ar
    30    16    17   ar
    31    17    18   ar
    32     8    11    1
    33    11    12    1
    34    26    27    1
    35    27    19    1
    36    33    28   ar
    37    27    23    1
    38    12     5    1
    39    18    13   ar
@<TRIPOS>MOLECULE
*****
 35 39 0 0 0
SMALL
GASTEIGER

@<TRIPOS>ATOM
      1 C          63.4470   89.7245   12.8424 C.2     1  UNL1        0.2470
      2 O          62.4446   90.3497   11.9181 O.2     1  UNL1       -0.2820
      3 C          64.4039   90.5900   13.6073 C.2     1  UNL1        0.2880
      4 O          64.8399   90.1897   14.9856 O.2     1  UNL1       -0.2664
      5 N          64.9247   91.8559   12.9940 N.am    1  UNL1       -0.2700
      6 C          64.4887   92.2563   11.6157 C.3     1  UNL1        0.1153
      7 C          65.0096   93.5222   11.0024 C.3     1  UNL1        0.1152
      8 N          65.9665   94.3878   11.7674 N.am    1  UNL1       -0.2726
      9 C          66.4874   95.6537   11.1541 C.2     1  UNL1        0.2491
     10 O          67.4443   96.5193   11.9190 O.2     1  UNL1       -0.2699
     11 C          66.4025   93.9875   13.1456 C.3     1  UNL1        0.1152
     12 C          65.8816   92.7215   13.7589 C.3     1  UNL1        0.1153
     13 C          66.0514   96.0540    9.7758 C.ar    1  UNL1        0.0536
     14 C          64.6270   96.4525    9.5259 C.ar    1  UNL1        0.0045
     15 C          64.1911   96.8529    8.1475 C.ar    1  UNL1        0.0001
     16 C          65.1794   96.8546    7.0192 C.ar    1  UNL1        0.0000
     17 C          66.6037   96.4561    7.2691 C.ar    1  UNL1        0.0001
     18 C          67.0397   96.0558    8.6474 C.ar    1  UNL1        0.0045
     19 C          62.3767   87.3750   10.6503 C.2     1  UNL1        0.1448
     20 C          61.9863   86.1576    9.8657 C.2     1  UNL1        0.1335
     21 N          62.2255   84.7904   10.4342 N.2     1  UNL1       -0.2211
     22 C          62.8552   84.6404   11.7874 C.2     1  UNL1        0.1799
     23 C          63.2456   85.8577   12.5720 C.2     1  UNL1        0.1058
     24 N          63.8796   86.0213   13.9216 N.2     1  UNL1       -0.2445
     25 C          64.0322   87.4897   14.1871 C.2     1  UNL1        0.0984
     26 C          63.4925   88.2336   13.0016 C.2     1  UNL1        0.0531
     27 C          63.0063   87.2250   12.0035 C.3     1  UNL1        0.1284
     28 N          63.0944   83.2730   12.3559 N.ar    1  UNL1       -0.1894
     29 C          64.3202   82.8285   13.0975 C.ar    1  UNL1        0.2027
     30 N          64.1331   81.3909   13.4825 N.ar    1  UNL1       -0.2072
     31 C          62.7917   80.9469   12.9789 C.ar    1  UNL1        0.1613
     32 C          62.1967   79.5797   13.1427 C.3     1  UNL1        0.0756
     33 N          62.1498   82.1101   12.2826 N.ar    1  UNL1       -0.1474
     34 C          60.7613   89.1387    9.6355 C.3     1  UNL1        0.2521
     35 O          62.1374   88.7423   10.0818 O.2     1  UNL1       -0.4734
@<TRIPOS>BOND
     1    34    35    1
     2    35    19    1
     3    19    20    2
     4    20    21    1
     5    21    22    2
     6    22    28    1
     7    28    29   ar
     8    29    30   ar
     9    30    31   ar
    10    31    32    1
    11    31    33   ar
    12    22    23    1
    13    23    24    2
    14    24    25    1
    15    25    26    2
    16    26     1    1
    17     1     2    2
    18     1     3    1
    19     3     4    2
    20     3     5   am
    21     5     6    1
    22     6     7    1
    23     7     8    1
    24     8     9   am
    25     9    10    2
    26     9    13    1
    27    13    14   ar
    28    14    15   ar
    29    15    16   ar
    30    16    17   ar
    31    17    18   ar
    32     8    11    1
    33    11    12    1
    34    26    27    1
    35    27    19    1
    36    33    28   ar
    37    27    23    1
    38    12     5    1
    39    18    13   ar
@<TRIPOS>MOLECULE
*****
 35 39 0 0 0
SMALL
GASTEIGER

@<TRIPOS>ATOM
      1 C          62.9500   89.7870   13.2027 C.2     1  UNL1        0.2470
      2 O          61.8695   90.1870   14.1631 O.2     1  UNL1       -0.2820
      3 C          64.3782   90.1452   13.4889 C.2     1  UNL1        0.2880
      4 O          65.1454   89.3917   14.5347 O.2     1  UNL1       -0.2664
      5 N          65.0392   91.2570   12.7294 N.am    1  UNL1       -0.2700
      6 C          64.2720   92.0106   11.6835 C.3     1  UNL1        0.1153
      7 C          64.9331   93.1224   10.9240 C.3     1  UNL1        0.1152
      8 N          66.3613   93.4807   11.2102 N.am    1  UNL1       -0.2726
      9 C          67.0223   94.5925   10.4507 C.2     1  UNL1        0.2491
     10 O          68.4505   94.9507   10.7369 O.2     1  UNL1       -0.2699
     11 C          67.1284   92.7272   12.2560 C.3     1  UNL1        0.1152
     12 C          66.4674   91.6154   13.0156 C.3     1  UNL1        0.1153
     13 C          66.2552   95.3460    9.4049 C.ar    1  UNL1        0.0536
     14 C          66.7269   95.3431    7.9810 C.ar    1  UNL1        0.0045
     15 C          65.9597   96.0967    6.9352 C.ar    1  UNL1        0.0001
     16 C          64.7208   96.8530    7.3133 C.ar    1  UNL1        0.0000
     17 C          64.2490   96.8559    8.7371 C.ar    1  UNL1        0.0001
     18 C          65.0162   96.1024    9.7829 C.ar    1  UNL1        0.0045
     19 C          63.1083   86.4409   12.7034 C.2     1  UNL1        0.1448
     20 C          63.0888   85.0163   12.2340 C.2     1  UNL1        0.1335
     21 N          62.6479   84.6928   10.8374 N.2     1  UNL1       -0.2211
     22 C          62.2264   85.7939    9.9099 C.2     1  UNL1        0.1799
     23 C          62.2459   87.2184   10.3792 C.2     1  UNL1        0.1058
     24 N          61.8888   88.5052    9.6961 N.2     1  UNL1       -0.2445
     25 C          62.1092   89.6240   10.6706 C.2     1  UNL1        0.0984
     26 C          62.6024   89.0287   11.9561 C.2     1  UNL1        0.0531
     27 C          62.6868   87.5419   11.7760 C.3     1  UNL1        0.1284
     28 N          61.7854   85.4703    8.5131 N.ar    1  UNL1       -0.1894
     29 C          60.4042   85.6578    7.9588 C.ar    1  UNL1        0.2027
     30 N          60.4135   85.2057    6.5286 N.ar    1  UNL1       -0.2072
     31 C          61.8004   84.7389    6.1990 C.ar    1  UNL1        0.1613
     32 C          62.2589   84.2027    4.8752 C.3     1  UNL1        0.0756
     33 N          62.6483   84.9024    7.4255 N.ar    1  UNL1       -0.1474
     34 C          64.7052   86.0290   14.7110 C.3     1  UNL1        0.2521
     35 O          63.5493   86.7644   14.1001 O.2     1  UNL1       -0.4734
@<TRIPOS>BOND
     1    34    35    1
     2    35    19    1
     3    19    20    2
     4    20    21    1
     5    21    22    2
     6    22    28    1
     7    28    29   ar
     8    29    30   ar
     9    30    31   ar
    10    31    32    1
    11    31    33   ar
    12    22    23    1
    13    23    24    2
    14    24    25    1
    15    25    26    2
    16    26     1    1
    17     1     2    2
    18     1     3    1
    19     3     4    2
    20     3     5   am
    21     5     6    1
    22     6     7    1
    23     7     8    1
    24     8     9   am
    25     9    10    2
    26     9    13    1
    27    13    14   ar
    28    14    15   ar
    29    15    16   ar
    30    16    17   ar
    31    17    18   ar
    32     8    11    1
    33    11    12    1
    34    26    27    1
    35    27    19    1
    36    33    28   ar
    37    27    23    1
    38    12     5    1
    39    18    13   ar
@<TRIPOS>MOLECULE
*****
 35 39 0 0 0
SMALL
GASTEIGER

@<TRIPOS>ATOM
      1 C          62.1877   93.1548    2.1175 C.2     1  UNL1        0.2470
      2 O          63.1947   92.8201    3.1777 O.2     1  UNL1       -0.2820
      3 C          60.7263   93.1851    2.4540 C.2     1  UNL1        0.2880
      4 O          59.8090   94.1247    1.7289 O.2     1  UNL1       -0.2664
      5 N          60.1821   92.2758    3.5156 N.am    1  UNL1       -0.2700
      6 C          61.0994   91.3361    4.2407 C.3     1  UNL1        0.1153
      7 C          60.5552   90.4269    5.3023 C.3     1  UNL1        0.1152
      8 N          59.0937   90.4572    5.6388 N.am    1  UNL1       -0.2726
      9 C          58.5494   89.5479    6.7004 C.2     1  UNL1        0.2491
     10 O          57.0880   89.5783    7.0370 O.2     1  UNL1       -0.2699
     11 C          58.1765   91.3968    4.9137 C.3     1  UNL1        0.1152
     12 C          58.7207   92.3061    3.8521 C.3     1  UNL1        0.1153
     13 C          59.4667   88.6083    7.4255 C.ar    1  UNL1        0.0536
     14 C          60.3326   89.1164    8.5401 C.ar    1  UNL1        0.0045
     15 C          61.2499   88.1767    9.2652 C.ar    1  UNL1        0.0001
     16 C          61.3012   86.7290    8.8757 C.ar    1  UNL1        0.0000
     17 C          60.4353   86.2210    7.7613 C.ar    1  UNL1        0.0001
     18 C          59.5181   87.1606    7.0362 C.ar    1  UNL1        0.0045
     19 C          64.4536   95.4732    1.1370 C.2     1  UNL1        0.1448
     20 C          65.4049   96.4102    0.4535 C.2     1  UNL1        0.1335
     21 N          65.5538   96.3713   -1.0385 N.2     1  UNL1       -0.2211
     22 C          64.7514   95.3954   -1.8472 C.2     1  UNL1        0.1799
     23 C          63.8001   94.4584   -1.1637 C.2     1  UNL1        0.1058
     24 N          62.8832   93.3961   -1.6935 N.2     1  UNL1       -0.2445
     25 C          62.1676   92.7784   -0.5288 C.2     1  UNL1        0.0984
     26 C          62.6423   93.4590    0.7208 C.2     1  UNL1        0.0531
     27 C          63.6512   94.4973    0.3284 C.3     1  UNL1        0.1284
     28 N          64.9003   95.3565   -3.3393 N.ar    1  UNL1       -0.1894
     29 C          65.3330   96.4970   -4.2122 C.ar    1  UNL1        0.2027
     30 N          65.3429   96.0156   -5.6328 N.ar    1  UNL1       -0.2072
     31 C          64.9162   94.5776   -5.6379 C.ar    1  UNL1        0.1613
     32 C          64.7859   93.7008   -6.8480 C.3     1  UNL1        0.0756
     33 N          64.6427   94.1702   -4.2204 N.ar    1  UNL1       -0.1474
     34 C          65.1349   96.4615    3.4411 C.3     1  UNL1        0.2521
     35 O          64.3047   95.5121    2.6291 O.2     1  UNL1       -0.4734
@<TRIPOS>BOND
     1    34    35    1
     2    35    19    1
     3    19    20    2
     4    20    21    1
     5    21    22    2
     6    22    28    1
     7    28    29   ar
     8    29    30   ar
     9    30    31   ar
    10    31    32    1
    11    31    33   ar
    12    22    23    1
    13    23    24    2
    14    24    25    1
    15    25    26    2
    16    26     1    1
    17     1     2    2
    18     1     3    1
    19     3     4    2
    20     3     5   am
    21     5     6    1
    22     6     7    1
    23     7     8    1
    24     8     9   am
    25     9    10    2
    26     9    13    1
    27    13    14   ar
    28    14    15   ar
    29    15    16   ar
    30    16    17   ar
    31    17    18   ar
    32     8    11    1
    33    11    12    1
    34    26    27    1
    35    27    19    1
    36    33    28   ar
    37    27    23    1
    38    12     5    1
    39    18    13   ar
@<TRIPOS>MOLECULE
*****
 35 39 0 0 0
SMALL
GASTEIGER

@<TRIPOS>ATOM
      1 C          61.8630   93.2596   -0.1977 C.2     1  UNL1        0.2470
      2 O          62.3522   92.0834    0.5944 O.2     1  UNL1       -0.2820
      3 C          60.6278   93.9930    0.2340 C.2     1  UNL1        0.2880
      4 O          60.5676   94.6259    1.5926 O.2     1  UNL1       -0.2664
      5 N          59.4529   94.0936   -0.6929 N.am    1  UNL1       -0.2700
      6 C          59.5130   93.4606   -2.0516 C.3     1  UNL1        0.1153
      7 C          58.3380   93.5612   -2.9786 C.3     1  UNL1        0.1152
      8 N          57.1028   94.2946   -2.5469 N.am    1  UNL1       -0.2726
      9 C          55.9278   94.3952   -3.4738 C.2     1  UNL1        0.2491
     10 O          54.6926   95.1287   -3.0422 O.2     1  UNL1       -0.2699
     11 C          57.0426   94.9275   -1.1883 C.3     1  UNL1        0.1152
     12 C          58.2176   94.8270   -0.2614 C.3     1  UNL1        0.1153
     13 C          55.9880   93.7623   -4.8324 C.ar    1  UNL1        0.0536
     14 C          56.1645   94.6184   -6.0515 C.ar    1  UNL1        0.0045
     15 C          56.2247   93.9854   -7.4101 C.ar    1  UNL1        0.0001
     16 C          56.1084   92.4965   -7.5497 C.ar    1  UNL1        0.0000
     17 C          55.9320   91.6405   -6.3307 C.ar    1  UNL1        0.0001
     18 C          55.8717   92.2733   -4.9721 C.ar    1  UNL1        0.0045
     19 C          64.1732   95.7249   -0.4345 C.2     1  UNL1        0.1448
     20 C          65.2071   96.7482   -0.8004 C.2     1  UNL1        0.1335
     21 N          65.6951   96.8486   -2.2151 N.2     1  UNL1       -0.2211
     22 C          65.1493   95.9257   -3.2641 C.2     1  UNL1        0.1799
     23 C          64.1154   94.9024   -2.8983 C.2     1  UNL1        0.1058
     24 N          63.3988   93.8648   -3.7106 N.2     1  UNL1       -0.2445
     25 C          62.4679   93.1231   -2.7978 C.2     1  UNL1        0.0984
     26 C          62.6091   93.7023   -1.4213 C.2     1  UNL1        0.0531
     27 C          63.6273   94.8020   -1.4834 C.3     1  UNL1        0.1284
     28 N          65.6375   96.0261   -4.6790 N.ar    1  UNL1       -0.1894
     29 C          64.8590   95.6615   -5.9083 C.ar    1  UNL1        0.2027
     30 N          65.7303   95.9189   -7.1019 N.ar    1  UNL1       -0.2072
     31 C          67.0471   96.4425   -6.6102 C.ar    1  UNL1        0.1613
     32 C          68.2162   96.8317   -7.4658 C.3     1  UNL1        0.0756
     33 N          66.9898   96.5088   -5.1128 N.ar    1  UNL1       -0.1474
     34 C          64.4742   94.8484    1.9926 C.3     1  UNL1        0.2521
     35 O          63.6851   95.6245    0.9803 O.2     1  UNL1       -0.4734
@<TRIPOS>BOND
     1    34    35    1
     2    35    19    1
     3    19    20    2
     4    20    21    1
     5    21    22    2
     6    22    28    1
     7    28    29   ar
     8    29    30   ar
     9    30    31   ar
    10    31    32    1
    11    31    33   ar
    12    22    23    1
    13    23    24    2
    14    24    25    1
    15    25    26    2
    16    26     1    1
    17     1     2    2
    18     1     3    1
    19     3     4    2
    20     3     5   am
    21     5     6    1
    22     6     7    1
    23     7     8    1
    24     8     9   am
    25     9    10    2
    26     9    13    1
    27    13    14   ar
    28    14    15   ar
    29    15    16   ar
    30    16    17   ar
    31    17    18   ar
    32     8    11    1
    33    11    12    1
    34    26    27    1
    35    27    19    1
    36    33    28   ar
    37    27    23    1
    38    12     5    1
    39    18    13   ar
