@<TRIPOS>MOLECULE
*****
 37 39 0 0 0
SMALL
GASTEIGER

@<TRIPOS>ATOM
      1 C          63.9958   89.1782   13.9121 C.3     1  UNL1        0.1621
      2 C          64.0546   90.3056   14.8997 C.ar    1  UNL1        0.1812
      3 N          63.2224   90.4347   16.1410 N.ar    1  UNL1       -0.1109
      4 N          63.6094   91.7108   16.8279 N.ar    1  UNL1       -0.0229
      5 N          64.6808   92.3704   16.0111 N.ar    1  UNL1       -0.0430
      6 N          64.9559   91.5019   14.8194 N.ar    1  UNL1       -0.2125
      7 C          65.9566   91.7809   13.7374 C.3     1  UNL1        0.1668
      8 C          67.4187   91.5662   13.9946 C.3     1  UNL1        0.1336
      9 C          68.1777   92.5297   14.8580 C.1     1  UNL1        0.0753
     10 N          68.9366   93.4933   15.7216 N.1     1  UNL1       -0.1958
     11 C          65.4953   92.2745   12.3981 C.3     1  UNL1        0.2324
     12 O          66.4834   92.4546   11.2840 O.3     1  UNL1       -0.4581
     13 C          66.6954   93.8119   10.6817 C.ar    1  UNL1        0.2249
     14 C          67.4015   93.9462    9.3651 C.ar    1  UNL1        0.0577
     15 C          67.6136   95.3035    8.7628 C.ar    1  UNL1        0.0064
     16 C          67.1196   96.5264    9.4771 C.ar    1  UNL1        0.0209
     17 C          66.4135   96.3921   10.7937 C.ar    1  UNL1        0.1021
     18 N          66.2014   95.0348   11.3960 N.ar    1  UNL1       -0.2101
     19 C          62.0324   89.7442   12.3075 C.2     1  UNL1        0.2351
     20 O          61.0978   89.8211   13.4782 O.2     1  UNL1       -0.2737
     21 N          63.4814   89.4227   12.5244 N.am    1  UNL1       -0.2965
     22 H          64.0948   89.3722   11.7560 H       1  UNL1        0.1499
     23 C          60.1284   89.6562   11.3763 C.3     1  UNL1        0.0249
     24 C          61.5180   89.9887   10.9198 C.3     1  UNL1        0.1086
     25 C          62.9077   90.3212   10.4633 C.3     1  UNL1        0.0249
     26 N          61.0037   90.2333    9.5322 N.3     1  UNL1       -0.3164
     27 H          59.9987   90.0604    9.5067 H       1  UNL1        0.1192
     28 H          61.4733   89.6053    8.8799 H       1  UNL1        0.1192
     29 C          64.4514   87.8062   14.3121 C.3     1  UNL1        0.1699
     30 O          63.6630   86.6016   13.8909 O.3     1  UNL1       -0.3468
     31 C          63.8998   85.2793   14.5583 C.3     1  UNL1        0.1687
     32 C          63.3222   84.0271   13.9680 C.ar    1  UNL1        0.0073
     33 C          62.5284   83.0892   14.8283 C.ar    1  UNL1       -0.0019
     34 C          61.9509   81.8371   14.2380 C.ar    1  UNL1       -0.0002
     35 C          62.1671   81.5228   12.7873 C.ar    1  UNL1       -0.0000
     36 C          62.9609   82.4607   11.9270 C.ar    1  UNL1       -0.0002
     37 C          63.5384   83.7128   12.5173 C.ar    1  UNL1       -0.0019
@<TRIPOS>BOND
     1    23    24    1
     2    24    25    1
     3    24    26    1
     4    24    19    1
     5    19    20    2
     6    19    21   am
     7    21     1    1
     8     1    29    1
     9    29    30    1
    10    30    31    1
    11    31    32    1
    12    32    33   ar
    13    33    34   ar
    14    34    35   ar
    15    35    36   ar
    16    36    37   ar
    17     1     2    1
    18     2     3   ar
    19     3     4   ar
    20     4     5   ar
    21     5     6   ar
    22     6     7    1
    23     7     8    1
    24     8     9    1
    25     9    10    3
    26     7    11    1
    27    11    12    1
    28    12    13    1
    29    13    14   ar
    30    14    15   ar
    31    15    16   ar
    32    16    17   ar
    33    17    18   ar
    34    37    32   ar
    35     6     2   ar
    36    18    13   ar
    37    26    27    1
    38    26    28    1
    39    21    22    1
@<TRIPOS>MOLECULE
*****
 37 39 0 0 0
SMALL
GASTEIGER

@<TRIPOS>ATOM
      1 C          63.6711   89.8030   14.2227 C.3     1  UNL1        0.1621
      2 C          64.1041   90.9072   15.1410 C.ar    1  UNL1        0.1812
      3 N          63.5062   91.2266   16.4791 N.ar    1  UNL1       -0.1109
      4 N          64.2436   92.4026   17.0475 N.ar    1  UNL1       -0.0229
      5 N          65.2973   92.8101   16.0606 N.ar    1  UNL1       -0.0430
      6 N          65.2110   91.8859   14.8823 N.ar    1  UNL1       -0.2125
      7 C          66.0792   91.9322   13.6600 C.3     1  UNL1        0.1668
      8 C          67.5426   91.6209   13.7674 C.3     1  UNL1        0.1336
      9 C          68.4446   92.5204   14.5595 C.1     1  UNL1        0.0753
     10 N          69.3465   93.4199   15.3517 N.1     1  UNL1       -0.1958
     11 C          65.4841   92.2898   12.3303 C.3     1  UNL1        0.2324
     12 O          66.3706   92.4539   11.1315 O.3     1  UNL1       -0.4581
     13 C          66.6385   93.8223   10.5785 C.ar    1  UNL1        0.2249
     14 C          67.3647   93.9755    9.2750 C.ar    1  UNL1        0.0577
     15 C          67.6326   95.3438    8.7220 C.ar    1  UNL1        0.0064
     16 C          67.1743   96.5589    9.4726 C.ar    1  UNL1        0.0209
     17 C          66.4481   96.4057   10.7761 C.ar    1  UNL1        0.1021
     18 N          66.1802   95.0374   11.3291 N.ar    1  UNL1       -0.2101
     19 C          63.5118   87.6321   15.6411 C.2     1  UNL1        0.2351
     20 O          62.4885   88.2836   16.5234 O.2     1  UNL1       -0.2737
     21 N          64.1031   88.3918   14.4908 N.am    1  UNL1       -0.2965
     22 H          64.7747   87.9642   13.9117 H       1  UNL1        0.1499
     23 C          64.8099   86.2535   14.6848 C.3     1  UNL1        0.0249
     24 C          63.9439   86.2209   15.9091 C.3     1  UNL1        0.1086
     25 C          63.0778   86.1883   17.1334 C.3     1  UNL1        0.0249
     26 N          64.3759   84.8097   16.1772 N.3     1  UNL1       -0.3164
     27 H          65.0169   84.5054   15.4445 H       1  UNL1        0.1192
     28 H          63.5582   84.2001   16.1883 H       1  UNL1        0.1192
     29 C          62.8060   90.1100   13.0364 C.3     1  UNL1        0.1699
     30 O          62.3553   89.0029   12.1302 O.3     1  UNL1       -0.3468
     31 C          62.4835   89.1516   10.6432 C.3     1  UNL1        0.1687
     32 C          61.6892   88.2660    9.7295 C.ar    1  UNL1        0.0073
     33 C          60.4358   88.7823    9.0873 C.ar    1  UNL1       -0.0019
     34 C          59.6416   87.8966    8.1737 C.ar    1  UNL1       -0.0002
     35 C          60.1007   86.4946    7.9023 C.ar    1  UNL1       -0.0000
     36 C          61.3540   85.9783    8.5446 C.ar    1  UNL1       -0.0002
     37 C          62.1482   86.8640    9.4582 C.ar    1  UNL1       -0.0019
@<TRIPOS>BOND
     1    23    24    1
     2    24    25    1
     3    24    26    1
     4    24    19    1
     5    19    20    2
     6    19    21   am
     7    21     1    1
     8     1    29    1
     9    29    30    1
    10    30    31    1
    11    31    32    1
    12    32    33   ar
    13    33    34   ar
    14    34    35   ar
    15    35    36   ar
    16    36    37   ar
    17     1     2    1
    18     2     3   ar
    19     3     4   ar
    20     4     5   ar
    21     5     6   ar
    22     6     7    1
    23     7     8    1
    24     8     9    1
    25     9    10    3
    26     7    11    1
    27    11    12    1
    28    12    13    1
    29    13    14   ar
    30    14    15   ar
    31    15    16   ar
    32    16    17   ar
    33    17    18   ar
    34    37    32   ar
    35     6     2   ar
    36    18    13   ar
    37    26    27    1
    38    26    28    1
    39    21    22    1
@<TRIPOS>MOLECULE
*****
 37 39 0 0 0
SMALL
GASTEIGER

@<TRIPOS>ATOM
      1 C          62.4926   85.5140   11.1826 C.3     1  UNL1        0.1621
      2 C          63.3154   84.2696   11.0264 C.ar    1  UNL1        0.1812
      3 N          63.7887   83.6826    9.7297 N.ar    1  UNL1       -0.1109
      4 N          64.5752   82.4439   10.0413 N.ar    1  UNL1       -0.0229
      5 N          64.5880   82.2655   11.5306 N.ar    1  UNL1       -0.0430
      6 N          63.8094   83.3938   12.1394 N.ar    1  UNL1       -0.2125
      7 C          63.5673   83.6085   13.6041 C.3     1  UNL1        0.1668
      8 C          62.2156   83.3263   14.1901 C.3     1  UNL1        0.1336
      9 C          61.6564   81.9351   14.1498 C.1     1  UNL1        0.0753
     10 N          61.0971   80.5438   14.1097 N.1     1  UNL1       -0.1958
     11 C          64.6768   84.1055   14.4828 C.3     1  UNL1        0.2324
     12 O          64.9779   85.5733   14.5530 O.3     1  UNL1       -0.4581
     13 C          64.2158   86.4507   15.5013 C.ar    1  UNL1        0.2249
     14 C          63.5457   85.8525   16.7026 C.ar    1  UNL1        0.0577
     15 C          62.7837   86.7300   17.6510 C.ar    1  UNL1        0.0064
     16 C          62.6918   88.2056   17.3980 C.ar    1  UNL1        0.0209
     17 C          63.3620   88.8038   16.1967 C.ar    1  UNL1        0.1021
     18 N          64.1240   87.9263   15.2484 N.ar    1  UNL1       -0.2101
     19 C          61.2347   86.2432    9.0295 C.2     1  UNL1        0.2351
     20 O          62.5356   86.6633    8.4118 O.2     1  UNL1       -0.2737
     21 N          61.2133   85.6686   10.4149 N.am    1  UNL1       -0.2965
     22 H          60.3595   85.3929   10.8202 H       1  UNL1        0.1499
     23 C          60.4060   85.3403    7.2980 C.3     1  UNL1        0.0249
     24 C          59.9554   86.3978    8.2617 C.3     1  UNL1        0.1086
     25 C          59.5048   87.4553    9.2254 C.3     1  UNL1        0.0249
     26 N          58.6761   86.5523    7.4939 N.3     1  UNL1       -0.3164
     27 H          58.6817   85.9206    6.6932 H       1  UNL1        0.1192
     28 H          58.5899   87.5147    7.1672 H       1  UNL1        0.1192
     29 C          62.9491   86.6038   12.1066 C.3     1  UNL1        0.1699
     30 O          62.1809   87.8898   12.1871 O.3     1  UNL1       -0.3468
     31 C          62.4007   88.9602   11.1596 C.3     1  UNL1        0.1687
     32 C          63.2971   90.1228   11.4676 C.ar    1  UNL1        0.0073
     33 C          63.6441   91.1081   10.3912 C.ar    1  UNL1       -0.0019
     34 C          64.5405   92.2706   10.6992 C.ar    1  UNL1       -0.0002
     35 C          65.0898   92.4479   12.0837 C.ar    1  UNL1       -0.0000
     36 C          64.7428   91.4626   13.1601 C.ar    1  UNL1       -0.0002
     37 C          63.8464   90.3001   12.8521 C.ar    1  UNL1       -0.0019
@<TRIPOS>BOND
     1    23    24    1
     2    24    25    1
     3    24    26    1
     4    24    19    1
     5    19    20    2
     6    19    21   am
     7    21     1    1
     8     1    29    1
     9    29    30    1
    10    30    31    1
    11    31    32    1
    12    32    33   ar
    13    33    34   ar
    14    34    35   ar
    15    35    36   ar
    16    36    37   ar
    17     1     2    1
    18     2     3   ar
    19     3     4   ar
    20     4     5   ar
    21     5     6   ar
    22     6     7    1
    23     7     8    1
    24     8     9    1
    25     9    10    3
    26     7    11    1
    27    11    12    1
    28    12    13    1
    29    13    14   ar
    30    14    15   ar
    31    15    16   ar
    32    16    17   ar
    33    17    18   ar
    34    37    32   ar
    35     6     2   ar
    36    18    13   ar
    37    26    27    1
    38    26    28    1
    39    21    22    1
@<TRIPOS>MOLECULE
*****
 37 39 0 0 0
SMALL
GASTEIGER

@<TRIPOS>ATOM
      1 C          64.9616   91.0674   13.6853 C.3     1  UNL1        0.1621
      2 C          64.1539   90.5761   14.8499 C.ar    1  UNL1        0.1812
      3 N          63.6634   91.4092   15.9968 N.ar    1  UNL1       -0.1109
      4 N          62.9012   90.5135   16.9277 N.ar    1  UNL1       -0.0229
      5 N          62.9205   89.1268   16.3561 N.ar    1  UNL1       -0.0430
      6 N          63.6947   89.1655   15.0719 N.ar    1  UNL1       -0.2125
      7 C          63.9628   87.9985   14.1685 C.3     1  UNL1        0.1668
      8 C          64.6648   86.7842   14.7001 C.3     1  UNL1        0.1336
      9 C          63.8697   85.5916   15.1422 C.1     1  UNL1        0.0753
     10 N          63.0746   84.3989   15.5842 N.1     1  UNL1       -0.1958
     11 C          63.5287   88.0456   12.7334 C.3     1  UNL1        0.2324
     12 O          62.2317   88.7018   12.3632 O.3     1  UNL1       -0.4581
     13 C          61.5309   88.3153   11.0946 C.ar    1  UNL1        0.2249
     14 C          61.4724   86.8753   10.6788 C.ar    1  UNL1        0.0577
     15 C          60.7716   86.4888    9.4101 C.ar    1  UNL1        0.0064
     16 C          60.1293   87.5423    8.5573 C.ar    1  UNL1        0.0209
     17 C          60.1877   88.9824    8.9731 C.ar    1  UNL1        0.1021
     18 N          60.8885   89.3689   10.2418 N.ar    1  UNL1       -0.2101
     19 C          67.1006   92.4366   14.2329 C.2     1  UNL1        0.2351
     20 O          66.2525   93.6283   14.5658 O.2     1  UNL1       -0.2737
     21 N          66.4551   91.1562   13.7927 N.am    1  UNL1       -0.2965
     22 H          67.0117   90.3741   13.5742 H       1  UNL1        0.1499
     23 C          68.4567   93.2750   15.6323 C.3     1  UNL1        0.0249
     24 C          68.5941   92.5255   14.3402 C.3     1  UNL1        0.1086
     25 C          68.7315   91.7760   13.0482 C.3     1  UNL1        0.0249
     26 N          70.0876   92.6143   14.4476 N.3     1  UNL1       -0.3164
     27 H          70.3378   93.1285   15.2922 H       1  UNL1        0.1192
     28 H          70.4589   93.1002   13.6312 H       1  UNL1        0.1192
     29 C          64.2758   91.4698   12.4135 C.3     1  UNL1        0.1699
     30 O          64.6339   92.7643   11.7454 O.3     1  UNL1       -0.3468
     31 C          65.8112   92.8292   10.8182 C.3     1  UNL1        0.1687
     32 C          66.3193   94.1582   10.3431 C.ar    1  UNL1        0.0073
     33 C          67.0701   94.2548    9.0482 C.ar    1  UNL1       -0.0019
     34 C          67.5781   95.5837    8.5731 C.ar    1  UNL1       -0.0002
     35 C          67.3354   96.8161    9.3930 C.ar    1  UNL1       -0.0000
     36 C          66.5845   96.7196   10.6879 C.ar    1  UNL1       -0.0002
     37 C          66.0765   95.3907   11.1630 C.ar    1  UNL1       -0.0019
@<TRIPOS>BOND
     1    23    24    1
     2    24    25    1
     3    24    26    1
     4    24    19    1
     5    19    20    2
     6    19    21   am
     7    21     1    1
     8     1    29    1
     9    29    30    1
    10    30    31    1
    11    31    32    1
    12    32    33   ar
    13    33    34   ar
    14    34    35   ar
    15    35    36   ar
    16    36    37   ar
    17     1     2    1
    18     2     3   ar
    19     3     4   ar
    20     4     5   ar
    21     5     6   ar
    22     6     7    1
    23     7     8    1
    24     8     9    1
    25     9    10    3
    26     7    11    1
    27    11    12    1
    28    12    13    1
    29    13    14   ar
    30    14    15   ar
    31    15    16   ar
    32    16    17   ar
    33    17    18   ar
    34    37    32   ar
    35     6     2   ar
    36    18    13   ar
    37    26    27    1
    38    26    28    1
    39    21    22    1
@<TRIPOS>MOLECULE
*****
 37 39 0 0 0
SMALL
GASTEIGER

@<TRIPOS>ATOM
      1 C          64.0817   89.9669   13.9794 C.3     1  UNL1        0.1621
      2 C          63.6873   89.1996   15.2064 C.ar    1  UNL1        0.1812
      3 N          63.2116   89.7901   16.5007 N.ar    1  UNL1       -0.1109
      4 N          62.9297   88.6625   17.4488 N.ar    1  UNL1       -0.0229
      5 N          63.2313   87.3750   16.7406 N.ar    1  UNL1       -0.0430
      6 N          63.6995   87.7070   15.3548 N.ar    1  UNL1       -0.2125
      7 C          64.1081   86.7196   14.3021 C.3     1  UNL1        0.1668
      8 C          65.1373   85.6739   14.6138 C.3     1  UNL1        0.1336
      9 C          64.7068   84.2964   15.0228 C.1     1  UNL1        0.0753
     10 N          64.2762   82.9189   15.4318 N.1     1  UNL1       -0.1958
     11 C          63.4876   86.7780   12.9376 C.3     1  UNL1        0.2324
     12 O          62.4227   85.7932   12.5552 O.3     1  UNL1       -0.4581
     13 C          62.8038   84.4682   11.9644 C.ar    1  UNL1        0.2249
     14 C          63.5638   84.4138   10.6723 C.ar    1  UNL1        0.0577
     15 C          63.9449   83.0888   10.0815 C.ar    1  UNL1        0.0064
     16 C          63.5660   81.8182   10.7829 C.ar    1  UNL1        0.0209
     17 C          62.8059   81.8725   12.0749 C.ar    1  UNL1        0.1021
     18 N          62.4248   83.1976   12.6657 N.ar    1  UNL1       -0.2101
     19 C          66.0445   91.5827   14.5144 C.2     1  UNL1        0.2351
     20 O          65.1543   92.3576   15.4403 O.2     1  UNL1       -0.2737
     21 N          65.5082   90.3874   13.7840 N.am    1  UNL1       -0.2965
     22 H          66.0925   89.8788   13.1763 H       1  UNL1        0.1499
     23 C          67.6689   92.0229   15.8057 C.3     1  UNL1        0.0249
     24 C          67.4710   92.0032   14.3190 C.3     1  UNL1        0.1086
     25 C          67.2732   91.9835   12.8322 C.3     1  UNL1        0.0249
     26 N          68.8976   92.4237   14.1235 N.3     1  UNL1       -0.3164
     27 H          69.3433   92.5468   15.0327 H       1  UNL1        0.1192
     28 H          68.9251   93.3043   13.6094 H       1  UNL1        0.1192
     29 C          63.0495   90.3136   12.9478 C.3     1  UNL1        0.1699
     30 O          63.0709   89.6380   11.6087 O.3     1  UNL1       -0.3468
     31 C          62.0643   90.0146   10.5624 C.3     1  UNL1        0.1687
     32 C          61.4314   88.9521    9.7135 C.ar    1  UNL1        0.0073
     33 C          62.0392   87.5822    9.6497 C.ar    1  UNL1       -0.0019
     34 C          61.4063   86.5198    8.8008 C.ar    1  UNL1       -0.0002
     35 C          60.1656   86.8271    8.0158 C.ar    1  UNL1       -0.0000
     36 C          59.5578   88.1970    8.0797 C.ar    1  UNL1       -0.0002
     37 C          60.1907   89.2594    8.9285 C.ar    1  UNL1       -0.0019
@<TRIPOS>BOND
     1    23    24    1
     2    24    25    1
     3    24    26    1
     4    24    19    1
     5    19    20    2
     6    19    21   am
     7    21     1    1
     8     1    29    1
     9    29    30    1
    10    30    31    1
    11    31    32    1
    12    32    33   ar
    13    33    34   ar
    14    34    35   ar
    15    35    36   ar
    16    36    37   ar
    17     1     2    1
    18     2     3   ar
    19     3     4   ar
    20     4     5   ar
    21     5     6   ar
    22     6     7    1
    23     7     8    1
    24     8     9    1
    25     9    10    3
    26     7    11    1
    27    11    12    1
    28    12    13    1
    29    13    14   ar
    30    14    15   ar
    31    15    16   ar
    32    16    17   ar
    33    17    18   ar
    34    37    32   ar
    35     6     2   ar
    36    18    13   ar
    37    26    27    1
    38    26    28    1
    39    21    22    1
@<TRIPOS>MOLECULE
*****
 37 39 0 0 0
SMALL
GASTEIGER

@<TRIPOS>ATOM
      1 C          64.9606   91.1032   13.5769 C.3     1  UNL1        0.1621
      2 C          64.1719   90.6277   14.7609 C.ar    1  UNL1        0.1812
      3 N          63.7331   91.4683   15.9231 N.ar    1  UNL1       -0.1109
      4 N          62.9735   90.5883   16.8711 N.ar    1  UNL1       -0.0229
      5 N          62.9430   89.2037   16.2946 N.ar    1  UNL1       -0.0430
      6 N          63.6836   89.2282   14.9905 N.ar    1  UNL1       -0.2125
      7 C          63.8983   88.0584   14.0764 C.3     1  UNL1        0.1668
      8 C          63.4880   88.1466   12.6363 C.3     1  UNL1        0.1336
      9 C          62.5844   87.1035   12.0487 C.1     1  UNL1        0.0753
     10 N          61.6808   86.0602   11.4610 N.1     1  UNL1       -0.1958
     11 C          64.5232   86.8002   14.6024 C.3     1  UNL1        0.2324
     12 O          63.6653   85.7427   15.2312 O.3     1  UNL1       -0.4581
     13 C          63.4394   84.4404   14.5220 C.ar    1  UNL1        0.2249
     14 C          64.2992   84.0648   13.3516 C.ar    1  UNL1        0.0577
     15 C          64.0733   82.7625   12.6423 C.ar    1  UNL1        0.0064
     16 C          62.9877   81.8359   13.1035 C.ar    1  UNL1        0.0209
     17 C          62.1279   82.2115   14.2738 C.ar    1  UNL1        0.1021
     18 N          62.3538   83.5138   14.9831 N.ar    1  UNL1       -0.2101
     19 C          67.0884   92.4292   14.2583 C.2     1  UNL1        0.2351
     20 O          66.2284   93.5482   14.7665 O.2     1  UNL1       -0.2737
     21 N          66.4546   91.2068   13.6635 N.am    1  UNL1       -0.2965
     22 H          67.0190   90.4724   13.3299 H       1  UNL1        0.1499
     23 C          68.4549   93.2982   15.6285 C.3     1  UNL1        0.0249
     24 C          68.5823   92.5327   14.3448 C.3     1  UNL1        0.1086
     25 C          68.7098   91.7672   13.0612 C.3     1  UNL1        0.0249
     26 N          70.0763   92.6363   14.4314 N.3     1  UNL1       -0.3164
     27 H          70.3327   93.1640   15.2657 H       1  UNL1        0.1192
     28 H          70.4324   93.1145   13.6038 H       1  UNL1        0.1192
     29 C          64.2554   91.4752   12.3064 C.3     1  UNL1        0.1699
     30 O          64.6094   92.7488   11.5973 O.3     1  UNL1       -0.3468
     31 C          65.8930   92.8468   10.8275 C.3     1  UNL1        0.1687
     32 C          66.3739   94.1806   10.3378 C.ar    1  UNL1        0.0073
     33 C          67.0834   94.2846    9.0204 C.ar    1  UNL1       -0.0019
     34 C          67.5643   95.6184    8.5307 C.ar    1  UNL1       -0.0002
     35 C          67.3357   96.8482    9.3586 C.ar    1  UNL1       -0.0000
     36 C          66.6261   96.7442   10.6760 C.ar    1  UNL1       -0.0002
     37 C          66.1453   95.4104   11.1657 C.ar    1  UNL1       -0.0019
@<TRIPOS>BOND
     1    23    24    1
     2    24    25    1
     3    24    26    1
     4    24    19    1
     5    19    20    2
     6    19    21   am
     7    21     1    1
     8     1    29    1
     9    29    30    1
    10    30    31    1
    11    31    32    1
    12    32    33   ar
    13    33    34   ar
    14    34    35   ar
    15    35    36   ar
    16    36    37   ar
    17     1     2    1
    18     2     3   ar
    19     3     4   ar
    20     4     5   ar
    21     5     6   ar
    22     6     7    1
    23     7     8    1
    24     8     9    1
    25     9    10    3
    26     7    11    1
    27    11    12    1
    28    12    13    1
    29    13    14   ar
    30    14    15   ar
    31    15    16   ar
    32    16    17   ar
    33    17    18   ar
    34    37    32   ar
    35     6     2   ar
    36    18    13   ar
    37    26    27    1
    38    26    28    1
    39    21    22    1
@<TRIPOS>MOLECULE
*****
 37 39 0 0 0
SMALL
GASTEIGER

@<TRIPOS>ATOM
      1 C          63.4102   89.5260   13.1598 C.3     1  UNL1        0.1621
      2 C          63.1353   90.1803   11.8383 C.ar    1  UNL1        0.1812
      3 N          64.0830   91.0568   11.0743 N.ar    1  UNL1       -0.1109
      4 N          63.3978   91.4912    9.8127 N.ar    1  UNL1       -0.0229
      5 N          62.0265   90.8832    9.7970 N.ar    1  UNL1       -0.0430
      6 N          61.8644   90.0731   11.0489 N.ar    1  UNL1       -0.2125
      7 C          60.6453   89.2927   11.4423 C.3     1  UNL1        0.1668
      8 C          59.5013   89.9823   12.1247 C.3     1  UNL1        0.1336
      9 C          58.4410   89.1742   12.8123 C.1     1  UNL1        0.0753
     10 N          57.3808   88.3660   13.5000 N.1     1  UNL1       -0.1958
     11 C          60.5701   87.8227   11.1533 C.3     1  UNL1        0.2324
     12 O          60.0260   87.3433    9.8402 O.3     1  UNL1       -0.4581
     13 C          60.8739   86.4907    8.9434 C.ar    1  UNL1        0.2249
     14 C          62.2965   86.1945    9.3155 C.ar    1  UNL1        0.0577
     15 C          63.1443   85.3419    8.4187 C.ar    1  UNL1        0.0064
     16 C          62.5695   84.7856    7.1498 C.ar    1  UNL1        0.0209
     17 C          61.1469   85.0818    6.7777 C.ar    1  UNL1        0.1021
     18 N          60.2991   85.9344    7.6745 N.ar    1  UNL1       -0.2101
     19 C          64.7077   91.0852   14.7831 C.2     1  UNL1        0.2351
     20 O          65.9193   90.9926   13.9037 O.2     1  UNL1       -0.2737
     21 N          63.4532   90.3519   14.4112 N.am    1  UNL1       -0.2965
     22 H          62.6579   90.4126   14.9884 H       1  UNL1        0.1499
     23 C          63.5533   91.1763   16.5606 C.3     1  UNL1        0.0249
     24 C          64.7506   91.9111   16.0345 C.3     1  UNL1        0.1086
     25 C          65.9478   92.6459   15.5085 C.3     1  UNL1        0.0249
     26 N          64.7935   92.7370   17.2860 N.3     1  UNL1       -0.3164
     27 H          64.0263   92.4639   17.9001 H       1  UNL1        0.1192
     28 H          64.7015   93.7240   17.0453 H       1  UNL1        0.1192
     29 C          63.6423   88.0457   13.2298 C.3     1  UNL1        0.1699
     30 O          63.8951   87.3879   14.5540 O.3     1  UNL1       -0.3468
     31 C          64.6563   86.0970   14.6170 C.3     1  UNL1        0.1687
     32 C          63.9783   84.8082   14.2569 C.ar    1  UNL1        0.0073
     33 C          62.9134   84.2456   15.1509 C.ar    1  UNL1       -0.0019
     34 C          62.2355   82.9570   14.7907 C.ar    1  UNL1       -0.0002
     35 C          62.6226   82.2309   13.5366 C.ar    1  UNL1       -0.0000
     36 C          63.6876   82.7935   12.6425 C.ar    1  UNL1       -0.0002
     37 C          64.3654   84.0821   13.0027 C.ar    1  UNL1       -0.0019
@<TRIPOS>BOND
     1    23    24    1
     2    24    25    1
     3    24    26    1
     4    24    19    1
     5    19    20    2
     6    19    21   am
     7    21     1    1
     8     1    29    1
     9    29    30    1
    10    30    31    1
    11    31    32    1
    12    32    33   ar
    13    33    34   ar
    14    34    35   ar
    15    35    36   ar
    16    36    37   ar
    17     1     2    1
    18     2     3   ar
    19     3     4   ar
    20     4     5   ar
    21     5     6   ar
    22     6     7    1
    23     7     8    1
    24     8     9    1
    25     9    10    3
    26     7    11    1
    27    11    12    1
    28    12    13    1
    29    13    14   ar
    30    14    15   ar
    31    15    16   ar
    32    16    17   ar
    33    17    18   ar
    34    37    32   ar
    35     6     2   ar
    36    18    13   ar
    37    26    27    1
    38    26    28    1
    39    21    22    1
@<TRIPOS>MOLECULE
*****
 37 39 0 0 0
SMALL
GASTEIGER

@<TRIPOS>ATOM
      1 C          64.5477   90.8754   13.6129 C.3     1  UNL1        0.1621
      2 C          63.9157   90.3597   14.8717 C.ar    1  UNL1        0.1812
      3 N          63.3799   91.1959   15.9959 N.ar    1  UNL1       -0.1109
      4 N          62.8417   90.2704   17.0464 N.ar    1  UNL1       -0.0229
      5 N          63.0448   88.8620   16.5714 N.ar    1  UNL1       -0.0430
      6 N          63.7086   88.9173   15.2275 N.ar    1  UNL1       -0.2125
      7 C          64.0971   87.7373   14.3868 C.3     1  UNL1        0.1668
      8 C          63.6419   87.6504   12.9602 C.3     1  UNL1        0.1336
      9 C          62.8410   86.4689   12.4992 C.1     1  UNL1        0.0753
     10 N          62.0401   85.2873   12.0382 N.1     1  UNL1       -0.1958
     11 C          64.9407   86.6441   14.9727 C.3     1  UNL1        0.2324
     12 O          64.2903   85.4897   15.6758 O.3     1  UNL1       -0.4581
     13 C          63.8724   84.2771   14.8981 C.ar    1  UNL1        0.2249
     14 C          62.6217   83.5393   15.2741 C.ar    1  UNL1        0.0577
     15 C          62.2037   82.3266   14.4964 C.ar    1  UNL1        0.0064
     16 C          63.0366   81.8518   13.3429 C.ar    1  UNL1        0.0209
     17 C          64.2873   82.5895   12.9669 C.ar    1  UNL1        0.1021
     18 N          64.7053   83.8022   13.7446 N.ar    1  UNL1       -0.2101
     19 C          66.7696   92.0656   14.2425 C.2     1  UNL1        0.2351
     20 O          66.0055   93.0508   15.0766 O.2     1  UNL1       -0.2737
     21 N          66.0407   90.9779   13.5107 N.am    1  UNL1       -0.2965
     22 H          66.5422   90.3313   12.9634 H       1  UNL1        0.1499
     23 C          68.1871   91.8165   12.6841 C.3     1  UNL1        0.0249
     24 C          68.2626   92.1681   14.1403 C.3     1  UNL1        0.1086
     25 C          68.3381   92.5197   15.5966 C.3     1  UNL1        0.0249
     26 N          69.7556   92.2706   14.0382 N.3     1  UNL1       -0.3164
     27 H          70.0469   92.0532   13.0851 H       1  UNL1        0.1192
     28 H          70.1868   91.6099   14.6846 H       1  UNL1        0.1192
     29 C          63.6866   91.2885   12.4563 C.3     1  UNL1        0.1699
     30 O          63.3401   90.2953   11.3868 O.3     1  UNL1       -0.3468
     31 C          62.1027   90.4842   10.5604 C.3     1  UNL1        0.1687
     32 C          61.5221   89.3263    9.8039 C.ar    1  UNL1        0.0073
     33 C          62.2874   88.0407    9.6971 C.ar    1  UNL1       -0.0019
     34 C          61.7068   86.8829    8.9406 C.ar    1  UNL1       -0.0002
     35 C          60.3608   87.0107    8.2909 C.ar    1  UNL1       -0.0000
     36 C          59.5955   88.2963    8.3976 C.ar    1  UNL1       -0.0002
     37 C          60.1762   89.4541    9.1541 C.ar    1  UNL1       -0.0019
@<TRIPOS>BOND
     1    23    24    1
     2    24    25    1
     3    24    26    1
     4    24    19    1
     5    19    20    2
     6    19    21   am
     7    21     1    1
     8     1    29    1
     9    29    30    1
    10    30    31    1
    11    31    32    1
    12    32    33   ar
    13    33    34   ar
    14    34    35   ar
    15    35    36   ar
    16    36    37   ar
    17     1     2    1
    18     2     3   ar
    19     3     4   ar
    20     4     5   ar
    21     5     6   ar
    22     6     7    1
    23     7     8    1
    24     8     9    1
    25     9    10    3
    26     7    11    1
    27    11    12    1
    28    12    13    1
    29    13    14   ar
    30    14    15   ar
    31    15    16   ar
    32    16    17   ar
    33    17    18   ar
    34    37    32   ar
    35     6     2   ar
    36    18    13   ar
    37    26    27    1
    38    26    28    1
    39    21    22    1
@<TRIPOS>MOLECULE
*****
 37 39 0 0 0
SMALL
GASTEIGER

@<TRIPOS>ATOM
      1 C          65.2442   92.1093   12.3238 C.3     1  UNL1        0.1621
      2 C          65.7488   92.4183   13.7021 C.ar    1  UNL1        0.1812
      3 N          66.6493   93.5579   14.0766 N.ar    1  UNL1       -0.1109
      4 N          66.8985   93.4858   15.5540 N.ar    1  UNL1       -0.0229
      5 N          66.1518   92.3015   16.0926 N.ar    1  UNL1       -0.0430
      6 N          65.4413   91.6418   14.9481 N.ar    1  UNL1       -0.2125
      7 C          64.5753   90.4201   15.0345 C.3     1  UNL1        0.1668
      8 C          63.4581   90.3618   16.0337 C.3     1  UNL1        0.1336
      9 C          63.0873   89.0545   16.6688 C.1     1  UNL1        0.0753
     10 N          62.7164   87.7472   17.3040 N.1     1  UNL1       -0.1958
     11 C          64.8266   89.2565   14.1218 C.3     1  UNL1        0.2324
     12 O          63.6821   88.4025   13.6627 O.3     1  UNL1       -0.4581
     13 C          63.7990   86.9076   13.7014 C.ar    1  UNL1        0.2249
     14 C          64.7184   86.2525   14.6892 C.ar    1  UNL1        0.0577
     15 C          64.8353   84.7576   14.7279 C.ar    1  UNL1        0.0064
     16 C          64.0328   83.9178   13.7789 C.ar    1  UNL1        0.0209
     17 C          63.1135   84.5728   12.7911 C.ar    1  UNL1        0.1021
     18 N          62.9966   86.0678   12.7524 N.ar    1  UNL1       -0.2101
     19 C          66.5166   93.4238   10.4790 C.2     1  UNL1        0.2351
     20 O          65.9013   94.7024   10.9656 O.2     1  UNL1       -0.2737
     21 N          66.1881   92.1273   11.1581 N.am    1  UNL1       -0.2965
     22 H          66.5920   91.2882   10.8387 H       1  UNL1        0.1499
     23 C          67.9744   92.0892    9.7086 C.3     1  UNL1        0.0249
     24 C          67.4605   93.4418    9.3133 C.3     1  UNL1        0.1086
     25 C          66.9465   94.7944    8.9181 C.3     1  UNL1        0.0249
     26 N          68.4043   93.4598    8.1477 N.3     1  UNL1       -0.3164
     27 H          68.9587   92.6036    8.1458 H       1  UNL1        0.1192
     28 H          69.0243   94.2661    8.2246 H       1  UNL1        0.1192
     29 C          63.7959   91.7824   12.1111 C.3     1  UNL1        0.1699
     30 O          63.4081   90.6357   11.2251 O.3     1  UNL1       -0.3468
     31 C          62.0499   90.6052   10.5893 C.3     1  UNL1        0.1687
     32 C          61.5624   89.3537    9.9212 C.ar    1  UNL1        0.0073
     33 C          60.2654   89.3621    9.1678 C.ar    1  UNL1       -0.0019
     34 C          59.7781   88.1106    8.4998 C.ar    1  UNL1       -0.0002
     35 C          60.5877   86.8508    8.5852 C.ar    1  UNL1       -0.0000
     36 C          61.8847   86.8424    9.3386 C.ar    1  UNL1       -0.0002
     37 C          62.3720   88.0938   10.0066 C.ar    1  UNL1       -0.0019
@<TRIPOS>BOND
     1    23    24    1
     2    24    25    1
     3    24    26    1
     4    24    19    1
     5    19    20    2
     6    19    21   am
     7    21     1    1
     8     1    29    1
     9    29    30    1
    10    30    31    1
    11    31    32    1
    12    32    33   ar
    13    33    34   ar
    14    34    35   ar
    15    35    36   ar
    16    36    37   ar
    17     1     2    1
    18     2     3   ar
    19     3     4   ar
    20     4     5   ar
    21     5     6   ar
    22     6     7    1
    23     7     8    1
    24     8     9    1
    25     9    10    3
    26     7    11    1
    27    11    12    1
    28    12    13    1
    29    13    14   ar
    30    14    15   ar
    31    15    16   ar
    32    16    17   ar
    33    17    18   ar
    34    37    32   ar
    35     6     2   ar
    36    18    13   ar
    37    26    27    1
    38    26    28    1
    39    21    22    1
