@<TRIPOS>MOLECULE
*****
 20 21 0 0 0
SMALL
GASTEIGER

@<TRIPOS>ATOM
      1 N          66.0256   91.8114   13.2107 N.am    1  UNL1       -0.2552
      2 C          64.6452   91.2243   13.2148 C.2     1  UNL1        0.2535
      3 O          63.6717   91.5894   12.1336 O.2     1  UNL1       -0.2695
      4 C          64.2384   90.2722   14.3001 C.ar    1  UNL1        0.0645
      5 C          64.2254   88.7955   14.0363 C.ar    1  UNL1        0.0062
      6 C          63.8185   87.8434   15.1216 C.ar    1  UNL1        0.0116
      7 C          63.4247   88.3678   16.4706 C.ar    1  UNL1        0.0585
      8 CL         63.0178   87.4156   17.5559 Cl      1  UNL1       -0.0822
      9 C          63.4377   89.8444   16.7344 C.ar    1  UNL1        0.0229
     10 C          63.8445   90.7965   15.6491 C.ar    1  UNL1        0.0629
     11 CL         63.8575   92.2731   15.9129 Cl      1  UNL1       -0.0821
     12 C          66.4324   92.7636   12.1254 C.ar    1  UNL1        0.0542
     13 C          66.1095   94.2232   12.2484 C.ar    1  UNL1        0.0158
     14 C          66.5163   95.1754   11.1631 C.ar    1  UNL1        0.0127
     15 C          67.2461   94.6679    9.9549 C.ar    1  UNL1        0.0578
     16 CL         67.6530   95.6201    8.8696 Cl      1  UNL1       -0.0822
     17 C          67.5691   93.2082    9.8319 C.ar    1  UNL1        0.0127
     18 C          67.1623   92.2560   10.9172 C.ar    1  UNL1        0.0158
     19 C          67.4602   92.4871   15.2687 C.3     1  UNL1        0.0237
     20 C          66.9991   91.4463   14.2920 C.3     1  UNL1        0.0986
@<TRIPOS>BOND
     1    19    20    1
     2    20     1    1
     3     1     2   am
     4     2     3    2
     5     2     4    1
     6     4     5   ar
     7     5     6   ar
     8     6     7   ar
     9     7     8    1
    10     7     9   ar
    11     9    10   ar
    12    10    11    1
    13     1    12    1
    14    12    13   ar
    15    13    14   ar
    16    14    15   ar
    17    15    16    1
    18    15    17   ar
    19    17    18   ar
    20    10     4   ar
    21    18    12   ar
@<TRIPOS>MOLECULE
*****
 20 21 0 0 0
SMALL
GASTEIGER

@<TRIPOS>ATOM
      1 N          63.0258   90.1234   12.0283 N.am    1  UNL1       -0.2552
      2 C          62.8276   88.6377   11.9713 C.2     1  UNL1        0.2535
      3 O          63.4721   87.7551   12.9989 O.2     1  UNL1       -0.2695
      4 C          61.9849   88.0345   10.8869 C.ar    1  UNL1        0.0645
      5 C          62.6295   87.2352    9.7933 C.ar    1  UNL1        0.0062
      6 C          61.7868   86.6320    8.7088 C.ar    1  UNL1        0.0116
      7 C          60.2996   86.8280    8.7180 C.ar    1  UNL1        0.0585
      8 CL         59.4570   86.2248    7.6336 Cl      1  UNL1       -0.0822
      9 C          59.6552   87.6272    9.8116 C.ar    1  UNL1        0.0229
     10 C          60.4979   88.2304   10.8960 C.ar    1  UNL1        0.0629
     11 CL         59.8534   89.0297   11.9896 Cl      1  UNL1       -0.0821
     12 C          63.8685   90.7267   13.1127 C.ar    1  UNL1        0.0542
     13 C          63.5105   90.5039   14.5522 C.ar    1  UNL1        0.0158
     14 C          64.3532   91.1071   15.6367 C.ar    1  UNL1        0.0127
     15 C          65.5538   91.9331   15.2816 C.ar    1  UNL1        0.0578
     16 CL         66.3964   92.5364   16.3661 Cl      1  UNL1       -0.0822
     17 C          65.9118   92.1560   13.8421 C.ar    1  UNL1        0.0127
     18 C          65.0691   91.5528   12.7576 C.ar    1  UNL1        0.0158
     19 C          63.1292   91.3755    9.7541 C.3     1  UNL1        0.0237
     20 C          62.3813   91.0060   11.0007 C.3     1  UNL1        0.0986
@<TRIPOS>BOND
     1    19    20    1
     2    20     1    1
     3     1     2   am
     4     2     3    2
     5     2     4    1
     6     4     5   ar
     7     5     6   ar
     8     6     7   ar
     9     7     8    1
    10     7     9   ar
    11     9    10   ar
    12    10    11    1
    13     1    12    1
    14    12    13   ar
    15    13    14   ar
    16    14    15   ar
    17    15    16    1
    18    15    17   ar
    19    17    18   ar
    20    10     4   ar
    21    18    12   ar
@<TRIPOS>MOLECULE
*****
 20 21 0 0 0
SMALL
GASTEIGER

@<TRIPOS>ATOM
      1 N          65.6611   92.4868   13.2448 N.am    1  UNL1       -0.2552
      2 C          65.2702   92.5862   11.8001 C.2     1  UNL1        0.2535
      3 O          64.2098   91.6814   11.2461 O.2     1  UNL1       -0.2695
      4 C          65.9396   93.5904   10.9093 C.ar    1  UNL1        0.0645
      5 C          65.3696   94.9715   10.7750 C.ar    1  UNL1        0.0062
      6 C          66.0391   95.9757    9.8842 C.ar    1  UNL1        0.0116
      7 C          67.2784   95.5989    9.1278 C.ar    1  UNL1        0.0585
      8 CL         67.9478   96.6031    8.2371 Cl      1  UNL1       -0.0822
      9 C          67.8483   94.2179    9.2622 C.ar    1  UNL1        0.0229
     10 C          67.1789   93.2137   10.1530 C.ar    1  UNL1        0.0629
     11 CL         67.7488   91.8326   10.2873 Cl      1  UNL1       -0.0821
     12 C          64.9917   91.4826   14.1356 C.ar    1  UNL1        0.0542
     13 C          64.4830   91.8977   15.4842 C.ar    1  UNL1        0.0158
     14 C          63.8136   90.8935   16.3750 C.ar    1  UNL1        0.0127
     15 C          63.6528   89.4742   15.9171 C.ar    1  UNL1        0.0578
     16 CL         62.9834   88.4700   16.8078 Cl      1  UNL1       -0.0822
     17 C          64.1616   89.0590   14.5684 C.ar    1  UNL1        0.0127
     18 C          64.8310   90.0632   13.6776 C.ar    1  UNL1        0.0158
     19 C          67.8610   92.8170   14.5870 C.3     1  UNL1        0.0237
     20 C          66.7215   93.3917   13.7988 C.3     1  UNL1        0.0986
@<TRIPOS>BOND
     1    19    20    1
     2    20     1    1
     3     1     2   am
     4     2     3    2
     5     2     4    1
     6     4     5   ar
     7     5     6   ar
     8     6     7   ar
     9     7     8    1
    10     7     9   ar
    11     9    10   ar
    12    10    11    1
    13     1    12    1
    14    12    13   ar
    15    13    14   ar
    16    14    15   ar
    17    15    16    1
    18    15    17   ar
    19    17    18   ar
    20    10     4   ar
    21    18    12   ar
@<TRIPOS>MOLECULE
*****
 20 21 0 0 0
SMALL
GASTEIGER

@<TRIPOS>ATOM
      1 N          64.8151   91.7348   12.5000 N.am    1  UNL1       -0.2552
      2 C          65.9886   92.6570   12.6500 C.2     1  UNL1        0.2535
      3 O          66.7480   92.7002   13.9429 O.2     1  UNL1       -0.2695
      4 C          66.4027   93.5360   11.5073 C.ar    1  UNL1        0.0645
      5 C          65.8182   94.9105   11.3683 C.ar    1  UNL1        0.0062
      6 C          66.2323   95.7895   10.2255 C.ar    1  UNL1        0.0116
      7 C          67.2309   95.2940    9.2218 C.ar    1  UNL1        0.0585
      8 CL         67.6450   96.1730    8.0790 Cl      1  UNL1       -0.0822
      9 C          67.8153   93.9196    9.3608 C.ar    1  UNL1        0.0229
     10 C          67.4012   93.0406   10.5036 C.ar    1  UNL1        0.0629
     11 CL         67.9856   91.6661   10.6426 Cl      1  UNL1       -0.0821
     12 C          64.4010   90.8558   13.6427 C.ar    1  UNL1        0.0542
     13 C          64.4049   89.3646   13.4815 C.ar    1  UNL1        0.0158
     14 C          63.9908   88.4856   14.6243 C.ar    1  UNL1        0.0127
     15 C          63.5728   89.0978   15.9282 C.ar    1  UNL1        0.0578
     16 CL         63.1587   88.2188   17.0710 Cl      1  UNL1       -0.0822
     17 C          63.5689   90.5892   16.0895 C.ar    1  UNL1        0.0127
     18 C          63.9830   91.4682   14.9467 C.ar    1  UNL1        0.0158
     19 C          62.7345   90.9850   11.1366 C.3     1  UNL1        0.0237
     20 C          64.0556   91.6917   11.2071 C.3     1  UNL1        0.0986
@<TRIPOS>BOND
     1    19    20    1
     2    20     1    1
     3     1     2   am
     4     2     3    2
     5     2     4    1
     6     4     5   ar
     7     5     6   ar
     8     6     7   ar
     9     7     8    1
    10     7     9   ar
    11     9    10   ar
    12    10    11    1
    13     1    12    1
    14    12    13   ar
    15    13    14   ar
    16    14    15   ar
    17    15    16    1
    18    15    17   ar
    19    17    18   ar
    20    10     4   ar
    21    18    12   ar
@<TRIPOS>MOLECULE
*****
 20 21 0 0 0
SMALL
GASTEIGER

@<TRIPOS>ATOM
      1 N          64.1618   91.0098   12.4621 N.am    1  UNL1       -0.2552
      2 C          64.8519   90.5392   13.7079 C.2     1  UNL1        0.2535
      3 O          64.4776   89.2222   14.3208 O.2     1  UNL1       -0.2695
      4 C          65.9164   91.3855   14.3410 C.ar    1  UNL1        0.0645
      5 C          67.2434   91.5536   13.6620 C.ar    1  UNL1        0.0062
      6 C          68.3078   92.3999   14.2951 C.ar    1  UNL1        0.0116
      7 C          68.0453   93.0780   15.6071 C.ar    1  UNL1        0.0585
      8 CL         69.1097   93.9243   16.2402 Cl      1  UNL1       -0.0822
      9 C          66.7183   92.9099   16.2860 C.ar    1  UNL1        0.0229
     10 C          65.6539   92.0636   15.6529 C.ar    1  UNL1        0.0629
     11 CL         64.3269   91.8954   16.3319 Cl      1  UNL1       -0.0821
     12 C          63.0974   90.1635   11.8290 C.ar    1  UNL1        0.0542
     13 C          63.1647   88.6690   11.9367 C.ar    1  UNL1        0.0158
     14 C          62.1003   87.8227   11.3036 C.ar    1  UNL1        0.0127
     15 C          60.9685   88.4710   10.5629 C.ar    1  UNL1        0.0578
     16 CL         59.9040   87.6247    9.9298 Cl      1  UNL1       -0.0822
     17 C          60.9011   89.9656   10.4552 C.ar    1  UNL1        0.0127
     18 C          61.9655   90.8119   11.0883 C.ar    1  UNL1        0.0158
     19 C          65.3677   92.3641   10.6015 C.3     1  UNL1        0.0237
     20 C          64.5361   92.3268   11.8493 C.3     1  UNL1        0.0986
@<TRIPOS>BOND
     1    19    20    1
     2    20     1    1
     3     1     2   am
     4     2     3    2
     5     2     4    1
     6     4     5   ar
     7     5     6   ar
     8     6     7   ar
     9     7     8    1
    10     7     9   ar
    11     9    10   ar
    12    10    11    1
    13     1    12    1
    14    12    13   ar
    15    13    14   ar
    16    14    15   ar
    17    15    16    1
    18    15    17   ar
    19    17    18   ar
    20    10     4   ar
    21    18    12   ar
@<TRIPOS>MOLECULE
*****
 20 21 0 0 0
SMALL
GASTEIGER

@<TRIPOS>ATOM
      1 N          62.8484   86.2596   12.5007 N.am    1  UNL1       -0.2552
      2 C          63.5490   85.2781   13.3928 C.2     1  UNL1        0.2535
      3 O          64.6116   85.7513   14.3400 O.2     1  UNL1       -0.2695
      4 C          63.1871   83.8235   13.3378 C.ar    1  UNL1        0.0645
      5 C          62.2594   83.2421   14.3632 C.ar    1  UNL1        0.0062
      6 C          61.8975   81.7874   14.3081 C.ar    1  UNL1        0.0116
      7 C          62.4633   80.9142   13.2277 C.ar    1  UNL1        0.0585
      8 CL         62.1014   79.4595   13.1726 Cl      1  UNL1       -0.0822
      9 C          63.3909   81.4956   12.2023 C.ar    1  UNL1        0.0229
     10 C          63.7528   82.9502   12.2573 C.ar    1  UNL1        0.0629
     11 CL         64.6805   83.5316   11.2319 Cl      1  UNL1       -0.0821
     12 C          63.2102   87.7142   12.5558 C.ar    1  UNL1        0.0542
     13 C          63.9927   88.2489   13.7184 C.ar    1  UNL1        0.0158
     14 C          64.3546   89.7036   13.7734 C.ar    1  UNL1        0.0127
     15 C          63.9340   90.6235   12.6659 C.ar    1  UNL1        0.0578
     16 CL         64.2959   92.0782   12.7209 Cl      1  UNL1       -0.0822
     17 C          63.1515   90.0888   11.5032 C.ar    1  UNL1        0.0127
     18 C          62.7896   88.6342   11.4481 C.ar    1  UNL1        0.0158
     19 C          62.1054   85.6011   10.0998 C.3     1  UNL1        0.0237
     20 C          61.7858   85.7864   11.5535 C.3     1  UNL1        0.0986
@<TRIPOS>BOND
     1    19    20    1
     2    20     1    1
     3     1     2   am
     4     2     3    2
     5     2     4    1
     6     4     5   ar
     7     5     6   ar
     8     6     7   ar
     9     7     8    1
    10     7     9   ar
    11     9    10   ar
    12    10    11    1
    13     1    12    1
    14    12    13   ar
    15    13    14   ar
    16    14    15   ar
    17    15    16    1
    18    15    17   ar
    19    17    18   ar
    20    10     4   ar
    21    18    12   ar
@<TRIPOS>MOLECULE
*****
 20 21 0 0 0
SMALL
GASTEIGER

@<TRIPOS>ATOM
      1 N          63.0857   86.4289   12.8073 N.am    1  UNL1       -0.2552
      2 C          63.7975   85.3918   13.6244 C.2     1  UNL1        0.2535
      3 O          64.8969   85.7989   14.5603 O.2     1  UNL1       -0.2695
      4 C          63.4099   83.9476   13.5058 C.ar    1  UNL1        0.0645
      5 C          64.0008   83.0994   12.4188 C.ar    1  UNL1        0.0062
      6 C          63.6132   81.6552   12.3002 C.ar    1  UNL1        0.0116
      7 C          62.6348   81.0592   13.2685 C.ar    1  UNL1        0.0585
      8 CL         62.2472   79.6150   13.1499 Cl      1  UNL1       -0.0822
      9 C          62.0440   81.9074   14.3555 C.ar    1  UNL1        0.0229
     10 C          62.4316   83.3516   14.4741 C.ar    1  UNL1        0.0629
     11 CL         61.8408   84.1999   15.5611 Cl      1  UNL1       -0.0821
     12 C          63.4733   87.8731   12.9260 C.ar    1  UNL1        0.0542
     13 C          63.0696   88.8480   11.8599 C.ar    1  UNL1        0.0158
     14 C          63.4572   90.2922   11.9785 C.ar    1  UNL1        0.0127
     15 C          64.2485   90.7615   13.1632 C.ar    1  UNL1        0.0578
     16 CL         64.6360   92.2057   13.2819 Cl      1  UNL1       -0.0822
     17 C          64.6522   89.7866   14.2294 C.ar    1  UNL1        0.0127
     18 C          64.2647   88.3424   14.1107 C.ar    1  UNL1        0.0158
     19 C          62.3059   85.6597   10.4514 C.3     1  UNL1        0.0237
     20 C          61.9863   86.0219   11.8715 C.3     1  UNL1        0.0986
@<TRIPOS>BOND
     1    19    20    1
     2    20     1    1
     3     1     2   am
     4     2     3    2
     5     2     4    1
     6     4     5   ar
     7     5     6   ar
     8     6     7   ar
     9     7     8    1
    10     7     9   ar
    11     9    10   ar
    12    10    11    1
    13     1    12    1
    14    12    13   ar
    15    13    14   ar
    16    14    15   ar
    17    15    16    1
    18    15    17   ar
    19    17    18   ar
    20    10     4   ar
    21    18    12   ar
@<TRIPOS>MOLECULE
*****
 20 21 0 0 0
SMALL
GASTEIGER

@<TRIPOS>ATOM
      1 N          63.1587   85.2973   12.7534 N.am    1  UNL1       -0.2552
      2 C          63.8561   85.5272   14.0613 C.2     1  UNL1        0.2535
      3 O          64.5889   84.4012   14.7286 O.2     1  UNL1       -0.2695
      4 C          63.8209   86.8831   14.7019 C.ar    1  UNL1        0.0645
      5 C          64.3040   88.0837   13.9435 C.ar    1  UNL1        0.0062
      6 C          64.2687   89.4396   14.5841 C.ar    1  UNL1        0.0116
      7 C          63.7504   89.5948   15.9832 C.ar    1  UNL1        0.0585
      8 CL         63.7151   90.9506   16.6239 Cl      1  UNL1       -0.0822
      9 C          63.2673   88.3941   16.7416 C.ar    1  UNL1        0.0229
     10 C          63.3026   87.0383   16.1009 C.ar    1  UNL1        0.0629
     11 CL         62.8195   85.8376   16.8593 Cl      1  UNL1       -0.0821
     12 C          63.1939   83.9415   12.1127 C.ar    1  UNL1        0.0542
     13 C          62.4604   82.7949   12.7429 C.ar    1  UNL1        0.0158
     14 C          62.4956   81.4390   12.1023 C.ar    1  UNL1        0.0127
     15 C          63.2644   81.2298   10.8315 C.ar    1  UNL1        0.0578
     16 CL         63.2997   79.8739   10.1908 Cl      1  UNL1       -0.0822
     17 C          63.9981   82.3764   10.2012 C.ar    1  UNL1        0.0127
     18 C          63.9628   83.7322   10.8418 C.ar    1  UNL1        0.0158
     19 C          61.3644   86.1284   11.0681 C.3     1  UNL1        0.0237
     20 C          62.4259   86.4233   12.0861 C.3     1  UNL1        0.0986
@<TRIPOS>BOND
     1    19    20    1
     2    20     1    1
     3     1     2   am
     4     2     3    2
     5     2     4    1
     6     4     5   ar
     7     5     6   ar
     8     6     7   ar
     9     7     8    1
    10     7     9   ar
    11     9    10   ar
    12    10    11    1
    13     1    12    1
    14    12    13   ar
    15    13    14   ar
    16    14    15   ar
    17    15    16    1
    18    15    17   ar
    19    17    18   ar
    20    10     4   ar
    21    18    12   ar
@<TRIPOS>MOLECULE
*****
 20 21 0 0 0
SMALL
GASTEIGER

@<TRIPOS>ATOM
      1 N          63.6854   86.0039   13.5944 N.am    1  UNL1       -0.2552
      2 C          62.7065   85.2375   12.7551 C.2     1  UNL1        0.2535
      3 O          61.8278   85.9614   11.7784 O.2     1  UNL1       -0.2695
      4 C          62.6063   83.7471   12.8925 C.ar    1  UNL1        0.0645
      5 C          61.9761   83.1473   14.1146 C.ar    1  UNL1        0.0062
      6 C          61.8759   81.6570   14.2520 C.ar    1  UNL1        0.0116
      7 C          62.4057   80.7665   13.1673 C.ar    1  UNL1        0.0585
      8 CL         62.3055   79.2762   13.3047 Cl      1  UNL1       -0.0822
      9 C          63.0358   81.3663   11.9454 C.ar    1  UNL1        0.0229
     10 C          63.1361   82.8567   11.8080 C.ar    1  UNL1        0.0629
     11 CL         63.7662   83.4565   10.5860 Cl      1  UNL1       -0.0821
     12 C          63.7856   87.4942   13.4570 C.ar    1  UNL1        0.0542
     13 C          63.2024   88.1776   12.2558 C.ar    1  UNL1        0.0158
     14 C          63.3027   89.6679   12.1184 C.ar    1  UNL1        0.0127
     15 C          63.9861   90.4748   13.1822 C.ar    1  UNL1        0.0578
     16 CL         64.0864   91.9652   13.0448 Cl      1  UNL1       -0.0822
     17 C          64.5694   89.7915   14.3835 C.ar    1  UNL1        0.0127
     18 C          64.4691   88.3012   14.5209 C.ar    1  UNL1        0.0158
     19 C          64.1643   85.1873   16.0139 C.3     1  UNL1        0.0237
     20 C          64.5640   85.2799   14.5712 C.3     1  UNL1        0.0986
@<TRIPOS>BOND
     1    19    20    1
     2    20     1    1
     3     1     2   am
     4     2     3    2
     5     2     4    1
     6     4     5   ar
     7     5     6   ar
     8     6     7   ar
     9     7     8    1
    10     7     9   ar
    11     9    10   ar
    12    10    11    1
    13     1    12    1
    14    12    13   ar
    15    13    14   ar
    16    14    15   ar
    17    15    16    1
    18    15    17   ar
    19    17    18   ar
    20    10     4   ar
    21    18    12   ar
