@<TRIPOS>MOLECULE
*****
 22 24 0 0 0
SMALL
GASTEIGER

@<TRIPOS>ATOM
      1 C          62.9803   85.3239   12.0193 C.ar    1  UNL1       -0.0144
      2 C          63.5254   86.0524   13.2118 C.ar    1  UNL1        0.0051
      3 S          63.8514   85.0366   14.2663 S.2     1  UNL1       -0.0915
      4 C          63.5077   83.6803   13.7254 C.ar    1  UNL1        0.0288
      5 C          63.6154   82.3066   14.3181 C.ar    1  UNL1        0.0065
      6 C          63.1848   81.1105   13.5220 C.ar    1  UNL1        0.0005
      7 C          62.6464   81.2881   12.1332 C.ar    1  UNL1        0.0000
      8 C          62.5387   82.6618   11.5406 C.ar    1  UNL1        0.0002
      9 C          62.9694   83.8579   12.3367 C.ar    1  UNL1        0.0025
     10 C          62.8058   85.2708    9.4275 C.3     1  UNL1        0.0110
     11 C          62.5259   85.9513   10.7348 C.3     1  UNL1        0.0627
     12 C          61.7918   87.2591   10.7573 C.ar    1  UNL1        0.0627
     13 C          62.3361   88.4379   10.0061 C.ar    1  UNL1        0.0151
     14 C          61.6020   89.7457   10.0286 C.ar    1  UNL1        0.0028
     15 C          60.3235   89.8749   10.8024 C.ar    1  UNL1        0.0207
     16 C          59.7792   88.6962   11.5536 C.ar    1  UNL1        0.0985
     17 N          60.5133   87.3883   11.5311 N.ar    1  UNL1       -0.2478
     18 C          63.7119   87.5361   13.3293 C.3     1  UNL1        0.0499
     19 C          64.2731   88.1240   14.5900 C.3     1  UNL1        0.0774
     20 N          63.6653   89.3646   15.1744 N.3     1  UNL1       -0.2700
     21 C          63.1061   89.3418   16.5661 C.3     1  UNL1        0.0897
     22 C          63.6167   90.6279   14.3672 C.3     1  UNL1        0.0897
@<TRIPOS>BOND
     1    11    10    1
     2    11    12    1
     3    12    13   ar
     4    13    14   ar
     5    14    15   ar
     6    15    16   ar
     7    16    17   ar
     8    11     1    1
     9     1     2   ar
    10     2    18    1
    11    18    19    1
    12    19    20    1
    13    20    21    1
    14    20    22    1
    15     2     3   ar
    16     3     4   ar
    17     4     5   ar
    18     5     6   ar
    19     6     7   ar
    20     7     8   ar
    21     8     9   ar
    22    17    12   ar
    23     9     1   ar
    24     9     4   ar
@<TRIPOS>MOLECULE
*****
 22 24 0 0 0
SMALL
GASTEIGER

@<TRIPOS>ATOM
      1 C          61.4308   88.1737   10.8269 C.ar    1  UNL1       -0.0144
      2 C          62.2001   86.9349   11.1784 C.ar    1  UNL1        0.0051
      3 S          61.9570   85.9177   10.1032 S.2     1  UNL1       -0.0915
      4 C          61.0373   86.5278    9.0872 C.ar    1  UNL1        0.0288
      5 C          60.4540   85.9938    7.8127 C.ar    1  UNL1        0.0065
      6 C          59.5455   86.8542    6.9854 C.ar    1  UNL1        0.0005
      7 C          59.2203   88.2485    7.4328 C.ar    1  UNL1        0.0000
      8 C          59.8036   88.7824    8.7073 C.ar    1  UNL1        0.0002
      9 C          60.7121   87.9221    9.5346 C.ar    1  UNL1        0.0025
     10 C          60.1252   89.8408   12.3325 C.3     1  UNL1        0.0110
     11 C          61.3876   89.4416   11.6274 C.3     1  UNL1        0.0627
     12 C          62.6067   90.3102   11.7227 C.ar    1  UNL1        0.0627
     13 C          63.1150   91.0257   10.5062 C.ar    1  UNL1        0.0151
     14 C          64.3341   91.8943   10.6015 C.ar    1  UNL1        0.0028
     15 C          65.0450   92.0476   11.9134 C.ar    1  UNL1        0.0207
     16 C          64.5368   91.3323   13.1299 C.ar    1  UNL1        0.0985
     17 N          63.3177   90.4636   13.0346 N.ar    1  UNL1       -0.2478
     18 C          63.0615   86.7465   12.3919 C.3     1  UNL1        0.0499
     19 C          63.2378   85.3785   12.9814 C.3     1  UNL1        0.0774
     20 N          63.3137   85.2073   14.4696 N.3     1  UNL1       -0.2700
     21 C          64.2275   86.0788   15.2792 C.3     1  UNL1        0.0897
     22 C          62.4759   84.1645   15.1483 C.3     1  UNL1        0.0897
@<TRIPOS>BOND
     1    11    10    1
     2    11    12    1
     3    12    13   ar
     4    13    14   ar
     5    14    15   ar
     6    15    16   ar
     7    16    17   ar
     8    11     1    1
     9     1     2   ar
    10     2    18    1
    11    18    19    1
    12    19    20    1
    13    20    21    1
    14    20    22    1
    15     2     3   ar
    16     3     4   ar
    17     4     5   ar
    18     5     6   ar
    19     6     7   ar
    20     7     8   ar
    21     8     9   ar
    22    17    12   ar
    23     9     1   ar
    24     9     4   ar
@<TRIPOS>MOLECULE
*****
 22 24 0 0 0
SMALL
GASTEIGER

@<TRIPOS>ATOM
      1 C          63.1894   90.3933   12.6355 C.ar    1  UNL1       -0.0144
      2 C          63.4850   90.1869   14.0916 C.ar    1  UNL1        0.0051
      3 S          64.7025   90.9926   14.4360 S.2     1  UNL1       -0.0915
      4 C          65.1593   91.6969   13.1929 C.ar    1  UNL1        0.0288
      5 C          66.3059   92.6277   12.9305 C.ar    1  UNL1        0.0065
      6 C          66.5174   93.1880   11.5553 C.ar    1  UNL1        0.0005
      7 C          65.5822   92.8176   10.4425 C.ar    1  UNL1        0.0000
      8 C          64.4356   91.8868   10.7049 C.ar    1  UNL1        0.0002
      9 C          64.2241   91.3265   12.0801 C.ar    1  UNL1        0.0025
     10 C          60.7758   90.5316   11.6838 C.3     1  UNL1        0.0110
     11 C          62.0577   89.7750   11.8694 C.3     1  UNL1        0.0627
     12 C          62.2078   88.4001   11.2888 C.ar    1  UNL1        0.0627
     13 C          61.9451   88.1691    9.8301 C.ar    1  UNL1        0.0151
     14 C          62.0951   86.7943    9.2495 C.ar    1  UNL1        0.0028
     15 C          62.5079   85.6503   10.1275 C.ar    1  UNL1        0.0207
     16 C          62.7706   85.8812   11.5862 C.ar    1  UNL1        0.0985
     17 N          62.6205   87.2561   12.1668 N.ar    1  UNL1       -0.2478
     18 C          62.7009   89.3260   15.0371 C.3     1  UNL1        0.0499
     19 C          63.3791   88.7004   16.2197 C.3     1  UNL1        0.0774
     20 N          63.3705   87.2098   16.3873 N.3     1  UNL1       -0.2700
     21 C          62.6342   86.5886   17.5372 C.3     1  UNL1        0.0897
     22 C          64.0982   86.3404   15.4051 C.3     1  UNL1        0.0897
@<TRIPOS>BOND
     1    11    10    1
     2    11    12    1
     3    12    13   ar
     4    13    14   ar
     5    14    15   ar
     6    15    16   ar
     7    16    17   ar
     8    11     1    1
     9     1     2   ar
    10     2    18    1
    11    18    19    1
    12    19    20    1
    13    20    21    1
    14    20    22    1
    15     2     3   ar
    16     3     4   ar
    17     4     5   ar
    18     5     6   ar
    19     6     7   ar
    20     7     8   ar
    21     8     9   ar
    22    17    12   ar
    23     9     1   ar
    24     9     4   ar
@<TRIPOS>MOLECULE
*****
 22 24 0 0 0
SMALL
GASTEIGER

@<TRIPOS>ATOM
      1 C          63.5908   85.5045   13.1303 C.ar    1  UNL1       -0.0144
      2 C          63.2338   84.0753   12.8473 C.ar    1  UNL1        0.0051
      3 S          62.3612   84.0484   11.6275 S.2     1  UNL1       -0.0915
      4 C          62.1789   85.4609   11.1567 C.ar    1  UNL1        0.0288
      5 C          61.4191   86.0439   10.0023 C.ar    1  UNL1        0.0065
      6 C          61.4192   87.5268    9.7766 C.ar    1  UNL1        0.0005
      7 C          62.1792   88.4267   10.7054 C.ar    1  UNL1        0.0000
      8 C          62.9390   87.8437   11.8598 C.ar    1  UNL1        0.0002
      9 C          62.9388   86.3608   12.0855 C.ar    1  UNL1        0.0025
     10 C          65.7308   85.2844   14.5871 C.3     1  UNL1        0.0110
     11 C          64.4491   85.9918   14.2598 C.3     1  UNL1        0.0627
     12 C          64.0259   87.1863   15.0621 C.ar    1  UNL1        0.0627
     13 C          64.3166   88.5692   14.5588 C.ar    1  UNL1        0.0151
     14 C          63.8933   89.7638   15.3611 C.ar    1  UNL1        0.0028
     15 C          63.1793   89.5756   16.6668 C.ar    1  UNL1        0.0207
     16 C          62.8886   88.1929   17.1701 C.ar    1  UNL1        0.0985
     17 N          63.3119   86.9982   16.3678 N.ar    1  UNL1       -0.2478
     18 C          63.6724   82.8826   13.6441 C.3     1  UNL1        0.0499
     19 C          62.6663   82.0926   14.4274 C.3     1  UNL1        0.0774
     20 N          61.9188   80.9698   13.7712 N.3     1  UNL1       -0.2700
     21 C          62.6000   80.1148   12.7439 C.3     1  UNL1        0.0897
     22 C          60.4904   80.7020   14.1421 C.3     1  UNL1        0.0897
@<TRIPOS>BOND
     1    11    10    1
     2    11    12    1
     3    12    13   ar
     4    13    14   ar
     5    14    15   ar
     6    15    16   ar
     7    16    17   ar
     8    11     1    1
     9     1     2   ar
    10     2    18    1
    11    18    19    1
    12    19    20    1
    13    20    21    1
    14    20    22    1
    15     2     3   ar
    16     3     4   ar
    17     4     5   ar
    18     5     6   ar
    19     6     7   ar
    20     7     8   ar
    21     8     9   ar
    22    17    12   ar
    23     9     1   ar
    24     9     4   ar
@<TRIPOS>MOLECULE
*****
 22 24 0 0 0
SMALL
GASTEIGER

@<TRIPOS>ATOM
      1 C          63.3582   85.9436   12.8052 C.ar    1  UNL1       -0.0144
      2 C          63.8403   85.2130   14.0233 C.ar    1  UNL1        0.0051
      3 S          64.3282   86.2307   15.0113 S.2     1  UNL1       -0.0915
      4 C          64.1477   87.5902   14.4038 C.ar    1  UNL1        0.0288
      5 C          64.4518   88.9668   14.9161 C.ar    1  UNL1        0.0065
      6 C          64.1564   90.1660   14.0648 C.ar    1  UNL1        0.0005
      7 C          63.5569   89.9886   12.7014 C.ar    1  UNL1        0.0000
      8 C          63.2528   88.6120   12.1891 C.ar    1  UNL1        0.0002
      9 C          63.5482   87.4128   13.0404 C.ar    1  UNL1        0.0025
     10 C          63.1882   83.9231   11.1806 C.3     1  UNL1        0.0110
     11 C          62.7865   85.3153   11.5689 C.3     1  UNL1        0.0627
     12 C          61.8132   86.0790   10.7208 C.ar    1  UNL1        0.0627
     13 C          61.8188   85.9047    9.2309 C.ar    1  UNL1        0.0151
     14 C          60.8455   86.6685    8.3828 C.ar    1  UNL1        0.0028
     15 C          59.8666   87.6065    9.0245 C.ar    1  UNL1        0.0207
     16 C          59.8610   87.7808   10.5143 C.ar    1  UNL1        0.0985
     17 N          60.8343   87.0171   11.3625 N.ar    1  UNL1       -0.2478
     18 C          63.8353   83.7258   14.2190 C.3     1  UNL1        0.0499
     19 C          62.5587   83.0195   14.5677 C.3     1  UNL1        0.0774
     20 N          62.3132   81.6254   14.0715 N.3     1  UNL1       -0.2700
     21 C          63.4423   80.8260   13.4916 C.3     1  UNL1        0.0897
     22 C          60.9388   81.0307   14.1552 C.3     1  UNL1        0.0897
@<TRIPOS>BOND
     1    11    10    1
     2    11    12    1
     3    12    13   ar
     4    13    14   ar
     5    14    15   ar
     6    15    16   ar
     7    16    17   ar
     8    11     1    1
     9     1     2   ar
    10     2    18    1
    11    18    19    1
    12    19    20    1
    13    20    21    1
    14    20    22    1
    15     2     3   ar
    16     3     4   ar
    17     4     5   ar
    18     5     6   ar
    19     6     7   ar
    20     7     8   ar
    21     8     9   ar
    22    17    12   ar
    23     9     1   ar
    24     9     4   ar
@<TRIPOS>MOLECULE
*****
 22 24 0 0 0
SMALL
GASTEIGER

@<TRIPOS>ATOM
      1 C          63.8426   84.8028   13.4291 C.ar    1  UNL1       -0.0144
      2 C          63.1061   85.4852   12.3147 C.ar    1  UNL1        0.0051
      3 S          62.3957   84.4329   11.5160 S.2     1  UNL1       -0.0915
      4 C          62.6931   83.1001   12.1367 C.ar    1  UNL1        0.0288
      5 C          62.2652   81.7079   11.7780 C.ar    1  UNL1        0.0065
      6 C          62.7315   80.5444   12.6018 C.ar    1  UNL1        0.0005
      7 C          63.6258   80.7730   13.7842 C.ar    1  UNL1        0.0000
      8 C          64.0537   82.1651   14.1428 C.ar    1  UNL1        0.0002
      9 C          63.5874   83.3287   13.3191 C.ar    1  UNL1        0.0025
     10 C          66.1250   85.0859   14.6377 C.3     1  UNL1        0.0110
     11 C          64.6862   85.4761   14.4706 C.3     1  UNL1        0.0627
     12 C          64.0913   86.5396   15.3451 C.ar    1  UNL1        0.0627
     13 C          63.4027   86.1615   16.6231 C.ar    1  UNL1        0.0151
     14 C          62.8078   87.2250   17.4976 C.ar    1  UNL1        0.0028
     15 C          62.9013   88.6668   17.0943 C.ar    1  UNL1        0.0207
     16 C          63.5898   89.0449   15.8164 C.ar    1  UNL1        0.0985
     17 N          64.1848   87.9814   14.9419 N.ar    1  UNL1       -0.2478
     18 C          63.0839   86.9608   12.0462 C.3     1  UNL1        0.0499
     19 C          62.0658   87.5371   11.1074 C.3     1  UNL1        0.0774
     20 N          61.2737   88.7456   11.5099 N.3     1  UNL1       -0.2700
     21 C          61.9790   89.9758   11.9991 C.3     1  UNL1        0.0897
     22 C          59.7764   88.7239   11.4234 C.3     1  UNL1        0.0897
@<TRIPOS>BOND
     1    11    10    1
     2    11    12    1
     3    12    13   ar
     4    13    14   ar
     5    14    15   ar
     6    15    16   ar
     7    16    17   ar
     8    11     1    1
     9     1     2   ar
    10     2    18    1
    11    18    19    1
    12    19    20    1
    13    20    21    1
    14    20    22    1
    15     2     3   ar
    16     3     4   ar
    17     4     5   ar
    18     5     6   ar
    19     6     7   ar
    20     7     8   ar
    21     8     9   ar
    22    17    12   ar
    23     9     1   ar
    24     9     4   ar
@<TRIPOS>MOLECULE
*****
 22 24 0 0 0
SMALL
GASTEIGER

@<TRIPOS>ATOM
      1 C          62.6263   85.4884   11.1642 C.ar    1  UNL1       -0.0144
      2 C          63.1837   84.9195    9.8931 C.ar    1  UNL1        0.0051
      3 S          63.7268   83.5543   10.1955 S.2     1  UNL1       -0.0915
      4 C          63.5051   83.2796   11.6534 C.ar    1  UNL1        0.0288
      5 C          63.8348   82.0955   12.5131 C.ar    1  UNL1        0.0065
      6 C          63.4842   82.1067   13.9714 C.ar    1  UNL1        0.0005
      7 C          62.8040   83.3021   14.5701 C.ar    1  UNL1        0.0000
      8 C          62.4744   84.4862   13.7105 C.ar    1  UNL1        0.0002
      9 C          62.8250   84.4750   12.2521 C.ar    1  UNL1        0.0025
     10 C          60.5942   87.0666   10.8030 C.3     1  UNL1        0.0110
     11 C          61.9831   86.8346   11.3200 C.3     1  UNL1        0.0627
     12 C          62.7287   87.9487   11.9928 C.ar    1  UNL1        0.0627
     13 C          62.6766   89.3362   11.4251 C.ar    1  UNL1        0.0151
     14 C          63.4221   90.4504   12.0979 C.ar    1  UNL1        0.0028
     15 C          64.2200   90.1771   13.3384 C.ar    1  UNL1        0.0207
     16 C          64.2722   88.7897   13.9061 C.ar    1  UNL1        0.0985
     17 N          63.5266   87.6755   13.2333 N.ar    1  UNL1       -0.2478
     18 C          63.1958   85.5967    8.5548 C.3     1  UNL1        0.0499
     19 C          62.9102   84.8068    7.3120 C.3     1  UNL1        0.0774
     20 N          61.5399   84.8367    6.7026 N.3     1  UNL1       -0.2700
     21 C          61.2523   84.0405    5.4642 C.3     1  UNL1        0.0897
     22 C          60.4573   85.6627    7.3315 C.3     1  UNL1        0.0897
@<TRIPOS>BOND
     1    11    10    1
     2    11    12    1
     3    12    13   ar
     4    13    14   ar
     5    14    15   ar
     6    15    16   ar
     7    16    17   ar
     8    11     1    1
     9     1     2   ar
    10     2    18    1
    11    18    19    1
    12    19    20    1
    13    20    21    1
    14    20    22    1
    15     2     3   ar
    16     3     4   ar
    17     4     5   ar
    18     5     6   ar
    19     6     7   ar
    20     7     8   ar
    21     8     9   ar
    22    17    12   ar
    23     9     1   ar
    24     9     4   ar
@<TRIPOS>MOLECULE
*****
 22 24 0 0 0
SMALL
GASTEIGER

@<TRIPOS>ATOM
      1 C          62.3558   88.6376   11.0968 C.ar    1  UNL1       -0.0144
      2 C          62.6111   87.3011   11.7281 C.ar    1  UNL1        0.0051
      3 S          61.7782   86.2820   11.0087 S.2     1  UNL1       -0.0915
      4 C          61.0081   86.9887    9.9327 C.ar    1  UNL1        0.0288
      5 C          60.0280   86.4946    8.9105 C.ar    1  UNL1        0.0065
      6 C          59.4048   87.4563    7.9426 C.ar    1  UNL1        0.0005
      7 C          59.7619   88.9122    7.9971 C.ar    1  UNL1        0.0000
      8 C          60.7420   89.4063    9.0194 C.ar    1  UNL1        0.0002
      9 C          61.3651   88.4446    9.9872 C.ar    1  UNL1        0.0025
     10 C          63.2208   91.0086   10.4796 C.3     1  UNL1        0.0110
     11 C          62.9814   89.9388   11.5036 C.3     1  UNL1        0.0627
     12 C          63.3677   90.1705   12.9343 C.ar    1  UNL1        0.0627
     13 C          64.6971   90.7829   13.2626 C.ar    1  UNL1        0.0151
     14 C          65.0834   91.0145   14.6934 C.ar    1  UNL1        0.0028
     15 C          64.1403   90.6337   15.7959 C.ar    1  UNL1        0.0207
     16 C          62.8110   90.0213   15.4677 C.ar    1  UNL1        0.0985
     17 N          62.4247   89.7897   14.0369 N.ar    1  UNL1       -0.2478
     18 C          63.5368   87.0312   12.8772 C.3     1  UNL1        0.0499
     19 C          63.6985   85.6337   13.3976 C.3     1  UNL1        0.0774
     20 N          63.2859   85.3038   14.8015 N.3     1  UNL1       -0.2700
     21 C          63.7977   86.1265   15.9466 C.3     1  UNL1        0.0897
     22 C          62.3615   84.1512   15.0603 C.3     1  UNL1        0.0897
@<TRIPOS>BOND
     1    11    10    1
     2    11    12    1
     3    12    13   ar
     4    13    14   ar
     5    14    15   ar
     6    15    16   ar
     7    16    17   ar
     8    11     1    1
     9     1     2   ar
    10     2    18    1
    11    18    19    1
    12    19    20    1
    13    20    21    1
    14    20    22    1
    15     2     3   ar
    16     3     4   ar
    17     4     5   ar
    18     5     6   ar
    19     6     7   ar
    20     7     8   ar
    21     8     9   ar
    22    17    12   ar
    23     9     1   ar
    24     9     4   ar
@<TRIPOS>MOLECULE
*****
 22 24 0 0 0
SMALL
GASTEIGER

@<TRIPOS>ATOM
      1 C          63.0867   87.9762   12.2922 C.ar    1  UNL1       -0.0144
      2 C          62.3459   87.2519   11.2075 C.ar    1  UNL1        0.0051
      3 S          62.4220   85.7820   11.4962 S.2     1  UNL1       -0.0915
      4 C          63.2098   85.5978   12.7593 C.ar    1  UNL1        0.0288
      5 C          63.6061   84.3704   13.5251 C.ar    1  UNL1        0.0065
      6 C          64.4132   84.4992   14.7828 C.ar    1  UNL1        0.0005
      7 C          64.8240   85.8553   15.2747 C.ar    1  UNL1        0.0000
      8 C          64.4277   87.0827   14.5090 C.ar    1  UNL1        0.0002
      9 C          63.6206   86.9539   13.2513 C.ar    1  UNL1        0.0025
     10 C          63.0731   90.3287   11.1895 C.3     1  UNL1        0.0110
     11 C          63.2627   89.4620   12.3991 C.3     1  UNL1        0.0627
     12 C          63.6284   90.0812   13.7154 C.ar    1  UNL1        0.0627
     13 C          64.8758   90.9057   13.8357 C.ar    1  UNL1        0.0151
     14 C          65.2416   91.5249   15.1520 C.ar    1  UNL1        0.0028
     15 C          64.3599   91.3197   16.3482 C.ar    1  UNL1        0.0207
     16 C          63.1126   90.4953   16.2279 C.ar    1  UNL1        0.0985
     17 N          62.7468   89.8761   14.9115 N.ar    1  UNL1       -0.2478
     18 C          61.6511   87.8863   10.0392 C.3     1  UNL1        0.0499
     19 C          60.9820   87.0271    9.0077 C.3     1  UNL1        0.0774
     20 N          59.8716   87.5883    8.1699 N.3     1  UNL1       -0.2700
     21 C          58.8525   86.6701    7.5628 C.3     1  UNL1        0.0897
     22 C          59.7801   89.0676    7.9392 C.3     1  UNL1        0.0897
@<TRIPOS>BOND
     1    11    10    1
     2    11    12    1
     3    12    13   ar
     4    13    14   ar
     5    14    15   ar
     6    15    16   ar
     7    16    17   ar
     8    11     1    1
     9     1     2   ar
    10     2    18    1
    11    18    19    1
    12    19    20    1
    13    20    21    1
    14    20    22    1
    15     2     3   ar
    16     3     4   ar
    17     4     5   ar
    18     5     6   ar
    19     6     7   ar
    20     7     8   ar
    21     8     9   ar
    22    17    12   ar
    23     9     1   ar
    24     9     4   ar
