@<TRIPOS>MOLECULE
*****
 48 55 0 0 0
SMALL
GASTEIGER

@<TRIPOS>ATOM
      1 C          60.1333   88.7234    9.3400 C.3     1  UNL1        0.0694
      2 C          60.6535   87.5334    8.5895 C.3     1  UNL1        0.0086
      3 C          60.4320   87.4244    7.1100 C.3     1  UNL1        0.0008
      4 C          59.6904   88.5053    6.3809 C.3     1  UNL1        0.0000
      5 C          59.1702   89.6954    7.1314 C.3     1  UNL1        0.0008
      6 C          59.3916   89.8044    8.6110 C.3     1  UNL1        0.0086
      7 C          60.6666   87.7636    9.3309 C.3     1  UNL1        0.0041
      8 C          61.3952   86.4524    9.3185 C.3     1  UNL1        0.0194
      9 C          61.1737   86.3434    7.8390 C.3     1  UNL1        0.0041
     10 C          60.8749   87.6425   10.0691 C.3     1  UNL1        0.0127
     11 C          65.7278   92.9562   11.9925 C.ar    1  UNL1        0.1721
     12 C          64.8304   92.2187   12.9415 C.ar    1  UNL1        0.0356
     13 C          63.7114   91.3721   12.4111 C.ar    1  UNL1       -0.0196
     14 C          63.4900   91.2630   10.9315 C.ar    1  UNL1       -0.0030
     15 C          64.3875   92.0006    9.9824 C.ar    1  UNL1        0.0371
     16 C          65.5063   92.8471   10.5129 C.ar    1  UNL1        0.1721
     17 C          62.3711   90.4165   10.4010 C.3     1  UNL1        0.1199
     18 N          61.4737   89.6791   11.3501 N.am    1  UNL1       -0.2751
     19 C          60.3548   88.8325   10.8196 C.2     1  UNL1        0.2250
     20 O          59.4573   88.0950   11.7686 O.2     1  UNL1       -0.2749
     21 C          61.6952   89.7881   12.8296 C.3     1  UNL1        0.0984
     22 C          62.8140   90.6346   13.3601 C.3     1  UNL1        0.0477
     23 C          66.9934   94.0115   14.0011 C.3     1  UNL1        0.2526
     24 O          66.8467   93.8027   12.5230 O.3     1  UNL1       -0.4684
     25 O          66.4038   93.5846    9.5639 O.3     1  UNL1       -0.4684
     26 C          67.7899   93.0779    9.2954 C.3     1  UNL1        0.2526
     27 C          62.1368   85.3715   10.0476 C.ar    1  UNL1       -0.0226
     28 C          63.1150   84.5052    9.3110 C.ar    1  UNL1       -0.0012
     29 C          63.8567   83.4242   10.0401 C.ar    1  UNL1        0.0366
     30 C          63.6201   83.2096   11.5056 C.ar    1  UNL1        0.1393
     31 C          62.6418   84.0759   12.2422 C.ar    1  UNL1        0.0366
     32 C          61.9002   85.1569   11.5132 C.ar    1  UNL1       -0.0012
     33 O          64.3618   82.1287   12.2347 O.3     1  UNL1       -0.4656
     34 C          64.9305   82.3967   13.5965 C.3     1  UNL1        0.2897
     35 C          64.1700   83.2435   14.5736 C.2     1  UNL1        0.2707
     36 O          63.0427   82.6479   15.3638 O.2     1  UNL1       -0.2707
     37 N          64.5368   84.6859   14.7604 N.am    1  UNL1       -0.2797
     38 H          65.2766   85.0768   14.2417 H       1  UNL1        0.1550
     39 C          63.7762   85.5328   15.7374 C.ar    1  UNL1        0.0682
     40 C          62.8629   84.8875   16.7372 C.ar    1  UNL1        0.0162
     41 C          62.1024   85.7343   17.7142 C.ar    1  UNL1        0.0014
     42 C          62.2552   87.2263   17.6914 C.ar    1  UNL1        0.0016
     43 C          63.1685   87.8715   16.6916 C.ar    1  UNL1        0.0189
     44 C          63.3212   89.3636   16.6689 C.ar    1  UNL1        0.0031
     45 C          64.2345   90.0088   15.6691 C.ar    1  UNL1        0.0207
     46 C          64.9950   89.1620   14.6921 C.ar    1  UNL1        0.0989
     47 N          64.8423   87.6700   14.7148 N.ar    1  UNL1       -0.2426
     48 C          63.9290   87.0248   15.7146 C.ar    1  UNL1        0.0947
@<TRIPOS>BOND
     1    23    24    1
     2    24    11    1
     3    11    12   ar
     4    12    13   ar
     5    13    14   ar
     6    14    15   ar
     7    15    16   ar
     8    16    25    1
     9    25    26    1
    10    14    17    1
    11    17    18    1
    12    18    19   am
    13    19    20    2
    14    19     1    1
    15     1     2    1
    16     2     3    1
    17     3     4    1
    18     4     5    1
    19     5     6    1
    20     5     7    1
    21     7     8    1
    22     8    27    1
    23    27    28   ar
    24    28    29   ar
    25    29    30   ar
    26    30    33    1
    27    33    34    1
    28    34    35    1
    29    35    36    2
    30    35    37   am
    31    37    39    1
    32    39    40   ar
    33    40    41   ar
    34    41    42   ar
    35    42    43   ar
    36    43    44   ar
    37    44    45   ar
    38    45    46   ar
    39    46    47   ar
    40    47    48   ar
    41    30    31   ar
    42    31    32   ar
    43     8     9    1
    44     8    10    1
    45    18    21    1
    46    21    22    1
    47    16    11   ar
    48     6     1    1
    49    32    27   ar
    50    22    13    1
    51    10     1    1
    52     9     3    1
    53    48    39   ar
    54    48    43   ar
    55    37    38    1
@<TRIPOS>MOLECULE
*****
 48 55 0 0 0
SMALL
GASTEIGER

@<TRIPOS>ATOM
      1 C          63.0504   82.2756   12.1737 C.3     1  UNL1        0.0694
      2 C          62.7638   83.0381   13.4332 C.3     1  UNL1        0.0086
      3 C          62.0638   82.3634   14.5755 C.3     1  UNL1        0.0008
      4 C          61.6505   80.9263   14.4583 C.3     1  UNL1        0.0000
      5 C          61.9372   80.1637   13.1988 C.3     1  UNL1        0.0008
      6 C          62.6371   80.8383   12.0565 C.3     1  UNL1        0.0086
      7 C          63.1039   83.2053   12.7555 C.3     1  UNL1        0.0041
      8 C          63.1771   84.4753   13.5504 C.3     1  UNL1        0.0194
      9 C          62.4771   83.8006   14.6927 C.3     1  UNL1        0.0041
     10 C          63.4637   83.7127   12.2908 C.3     1  UNL1        0.0127
     11 C          60.3711   88.7121    9.4092 C.ar    1  UNL1        0.1721
     12 C          61.6069   88.0995    8.8197 C.ar    1  UNL1        0.0356
     13 C          62.1428   86.8121    9.3726 C.ar    1  UNL1       -0.0196
     14 C          61.4428   86.1375   10.5150 C.ar    1  UNL1       -0.0030
     15 C          60.2070   86.7502   11.1044 C.ar    1  UNL1        0.0371
     16 C          59.6711   88.0374   10.5515 C.ar    1  UNL1        0.1721
     17 C          61.9787   84.8502   11.0679 C.3     1  UNL1        0.1199
     18 N          63.2144   84.2376   10.4784 N.am    1  UNL1       -0.2751
     19 C          63.7503   82.9502   11.0313 C.2     1  UNL1        0.2250
     20 O          64.9861   82.3376   10.4419 O.2     1  UNL1       -0.2749
     21 C          63.9144   84.9122    9.3361 C.3     1  UNL1        0.0984
     22 C          63.3785   86.1995    8.7832 C.3     1  UNL1        0.0477
     23 C          59.4059   90.0783    7.4212 C.3     1  UNL1        0.2526
     24 O          59.8352   89.9994    8.8563 O.3     1  UNL1       -0.4684
     25 O          58.4353   88.6501   11.1409 O.3     1  UNL1       -0.4684
     26 C          58.4627   89.1986   12.5368 C.3     1  UNL1        0.2526
     27 C          63.5903   85.9124   13.6675 C.ar    1  UNL1       -0.0226
     28 C          63.1400   86.9084   12.6403 C.ar    1  UNL1       -0.0012
     29 C          63.5533   88.3456   12.7574 C.ar    1  UNL1        0.0366
     30 C          64.4169   88.7868   13.9018 C.ar    1  UNL1        0.1393
     31 C          64.8673   87.7907   14.9290 C.ar    1  UNL1        0.0366
     32 C          64.4540   86.3536   14.8119 C.ar    1  UNL1       -0.0012
     33 O          64.8302   90.2239   14.0189 O.3     1  UNL1       -0.4656
     34 C          64.1867   91.2626   13.1489 C.3     1  UNL1        0.2897
     35 C          64.8777   91.7294   11.9020 C.2     1  UNL1        0.2707
     36 O          64.2128   91.5605   10.5681 O.2     1  UNL1       -0.2707
     37 N          66.2336   92.3651   11.9891 N.am    1  UNL1       -0.2797
     38 H          66.6699   92.4759   12.8646 H       1  UNL1        0.1550
     39 C          66.9246   92.8318   10.7422 C.ar    1  UNL1        0.0682
     40 C          67.9497   91.9588   10.0812 C.ar    1  UNL1        0.0162
     41 C          68.6407   92.4255    8.8344 C.ar    1  UNL1        0.0014
     42 C          68.3065   93.7652    8.2485 C.ar    1  UNL1        0.0016
     43 C          67.2814   94.6383    8.9094 C.ar    1  UNL1        0.0189
     44 C          66.9472   95.9781    8.3234 C.ar    1  UNL1        0.0031
     45 C          65.9220   96.8511    8.9843 C.ar    1  UNL1        0.0207
     46 C          65.2310   96.3844   10.2312 C.ar    1  UNL1        0.0989
     47 N          65.5652   95.0446   10.8172 N.ar    1  UNL1       -0.2426
     48 C          66.5904   94.1716   10.1562 C.ar    1  UNL1        0.0947
@<TRIPOS>BOND
     1    23    24    1
     2    24    11    1
     3    11    12   ar
     4    12    13   ar
     5    13    14   ar
     6    14    15   ar
     7    15    16   ar
     8    16    25    1
     9    25    26    1
    10    14    17    1
    11    17    18    1
    12    18    19   am
    13    19    20    2
    14    19     1    1
    15     1     2    1
    16     2     3    1
    17     3     4    1
    18     4     5    1
    19     5     6    1
    20     5     7    1
    21     7     8    1
    22     8    27    1
    23    27    28   ar
    24    28    29   ar
    25    29    30   ar
    26    30    33    1
    27    33    34    1
    28    34    35    1
    29    35    36    2
    30    35    37   am
    31    37    39    1
    32    39    40   ar
    33    40    41   ar
    34    41    42   ar
    35    42    43   ar
    36    43    44   ar
    37    44    45   ar
    38    45    46   ar
    39    46    47   ar
    40    47    48   ar
    41    30    31   ar
    42    31    32   ar
    43     8     9    1
    44     8    10    1
    45    18    21    1
    46    21    22    1
    47    16    11   ar
    48     6     1    1
    49    32    27   ar
    50    22    13    1
    51    10     1    1
    52     9     3    1
    53    48    39   ar
    54    48    43   ar
    55    37    38    1
@<TRIPOS>MOLECULE
*****
 48 55 0 0 0
SMALL
GASTEIGER

@<TRIPOS>ATOM
      1 C          65.3623   91.6406   15.2858 C.3     1  UNL1        0.0694
      2 C          65.4797   91.4487   13.8028 C.3     1  UNL1        0.0086
      3 C          66.7129   91.9074   13.0825 C.3     1  UNL1        0.0008
      4 C          67.8287   92.5580   13.8452 C.3     1  UNL1        0.0000
      5 C          67.7114   92.7499   15.3283 C.3     1  UNL1        0.0008
      6 C          66.4782   92.2912   16.0486 C.3     1  UNL1        0.0086
      7 C          64.9404   91.2845   14.3367 C.3     1  UNL1        0.0041
      8 C          64.3639   90.7981   13.0401 C.3     1  UNL1        0.0194
      9 C          65.5971   91.2568   12.3198 C.3     1  UNL1        0.0041
     10 C          64.2466   90.9900   14.5232 C.3     1  UNL1        0.0127
     11 C          63.5189   84.3707   15.3094 C.ar    1  UNL1        0.1721
     12 C          62.6544   85.3660   16.0250 C.ar    1  UNL1        0.0356
     13 C          63.0231   86.8200   16.0203 C.ar    1  UNL1       -0.0196
     14 C          64.2563   87.2787   15.3000 C.ar    1  UNL1       -0.0030
     15 C          65.1208   86.2833   14.5844 C.ar    1  UNL1        0.0371
     16 C          64.7520   84.8294   14.5891 C.ar    1  UNL1        0.1721
     17 C          64.6250   88.7326   15.2953 C.3     1  UNL1        0.1199
     18 N          63.7605   89.7279   16.0109 N.am    1  UNL1       -0.2751
     19 C          64.1292   91.1819   16.0062 C.2     1  UNL1        0.2250
     20 O          63.2647   92.1771   16.7218 O.2     1  UNL1       -0.2749
     21 C          62.5273   89.2692   16.7312 C.3     1  UNL1        0.0984
     22 C          62.1586   87.8152   16.7359 C.3     1  UNL1        0.0477
     23 C          62.0625   82.4158   14.4107 C.3     1  UNL1        0.2526
     24 O          63.1502   82.9167   15.3141 O.3     1  UNL1       -0.4684
     25 O          65.6165   83.8341   13.8735 O.3     1  UNL1       -0.4684
     26 C          65.0952   83.1237   12.6596 C.3     1  UNL1        0.2526
     27 C          63.2481   90.1476   12.2774 C.ar    1  UNL1       -0.0226
     28 C          63.1672   88.6520   12.1966 C.ar    1  UNL1       -0.0012
     29 C          62.0514   88.0013   11.4339 C.ar    1  UNL1        0.0366
     30 C          61.0165   88.8464   10.7520 C.ar    1  UNL1        0.1393
     31 C          61.0975   90.3421   10.8328 C.ar    1  UNL1        0.0366
     32 C          62.2133   90.9926   11.5955 C.ar    1  UNL1       -0.0012
     33 O          59.9007   88.1958    9.9893 O.3     1  UNL1       -0.4656
     34 C          60.0887   87.8376    8.5449 C.3     1  UNL1        0.2897
     35 C          59.4376   88.6647    7.4761 C.2     1  UNL1        0.2707
     36 O          58.0400   88.3502    7.0316 O.2     1  UNL1       -0.2707
     37 N          60.1842   89.8061    6.8520 N.am    1  UNL1       -0.2797
     38 H          61.1016   90.0125    7.1437 H       1  UNL1        0.1550
     39 C          59.5331   90.6332    5.7832 C.ar    1  UNL1        0.0682
     40 C          58.0500   90.8564    5.8068 C.ar    1  UNL1        0.0162
     41 C          57.3989   91.6834    4.7382 C.ar    1  UNL1        0.0014
     42 C          58.2309   92.2872    3.6459 C.ar    1  UNL1        0.0016
     43 C          59.7141   92.0640    3.6223 C.ar    1  UNL1        0.0189
     44 C          60.5461   92.6679    2.5300 C.ar    1  UNL1        0.0031
     45 C          62.0292   92.4447    2.5064 C.ar    1  UNL1        0.0207
     46 C          62.6803   91.6177    3.5751 C.ar    1  UNL1        0.0989
     47 N          61.8483   91.0138    4.6674 N.ar    1  UNL1       -0.2426
     48 C          60.3652   91.2370    4.6910 C.ar    1  UNL1        0.0947
@<TRIPOS>BOND
     1    23    24    1
     2    24    11    1
     3    11    12   ar
     4    12    13   ar
     5    13    14   ar
     6    14    15   ar
     7    15    16   ar
     8    16    25    1
     9    25    26    1
    10    14    17    1
    11    17    18    1
    12    18    19   am
    13    19    20    2
    14    19     1    1
    15     1     2    1
    16     2     3    1
    17     3     4    1
    18     4     5    1
    19     5     6    1
    20     5     7    1
    21     7     8    1
    22     8    27    1
    23    27    28   ar
    24    28    29   ar
    25    29    30   ar
    26    30    33    1
    27    33    34    1
    28    34    35    1
    29    35    36    2
    30    35    37   am
    31    37    39    1
    32    39    40   ar
    33    40    41   ar
    34    41    42   ar
    35    42    43   ar
    36    43    44   ar
    37    44    45   ar
    38    45    46   ar
    39    46    47   ar
    40    47    48   ar
    41    30    31   ar
    42    31    32   ar
    43     8     9    1
    44     8    10    1
    45    18    21    1
    46    21    22    1
    47    16    11   ar
    48     6     1    1
    49    32    27   ar
    50    22    13    1
    51    10     1    1
    52     9     3    1
    53    48    39   ar
    54    48    43   ar
    55    37    38    1
@<TRIPOS>MOLECULE
*****
 48 55 0 0 0
SMALL
GASTEIGER

@<TRIPOS>ATOM
      1 C          61.4557   86.2604    8.8355 C.3     1  UNL1        0.0694
      2 C          60.9538   87.3783    9.7005 C.3     1  UNL1        0.0086
      3 C          59.5504   87.8819    9.5361 C.3     1  UNL1        0.0008
      4 C          58.6490   87.2676    8.5066 C.3     1  UNL1        0.0000
      5 C          59.1508   86.1496    7.6414 C.3     1  UNL1        0.0008
      6 C          60.5542   85.6460    7.8059 C.3     1  UNL1        0.0086
      7 C          61.6246   86.9926    9.6362 C.3     1  UNL1        0.0041
      8 C          61.8553   87.9927   10.7301 C.3     1  UNL1        0.0194
      9 C          60.4519   88.4963   10.5656 C.3     1  UNL1        0.0041
     10 C          62.3571   86.8748    9.8649 C.3     1  UNL1        0.0127
     11 C          62.9340   80.8280   13.7906 C.ar    1  UNL1        0.1721
     12 C          64.0416   81.4109   12.9641 C.ar    1  UNL1        0.0356
     13 C          63.7460   82.4974   11.9730 C.ar    1  UNL1       -0.0196
     14 C          62.3426   83.0010   11.8085 C.ar    1  UNL1       -0.0030
     15 C          61.2349   82.4181   12.6352 C.ar    1  UNL1        0.0371
     16 C          61.5306   81.3316   13.6262 C.ar    1  UNL1        0.1721
     17 C          62.0470   84.0875   10.8175 C.3     1  UNL1        0.1199
     18 N          63.1546   84.6703    9.9910 N.am    1  UNL1       -0.2751
     19 C          62.8590   85.7569    8.9999 C.2     1  UNL1        0.2250
     20 O          63.9667   86.3397    8.1733 O.2     1  UNL1       -0.2749
     21 C          64.5580   84.1668   10.1554 C.3     1  UNL1        0.0984
     22 C          64.8537   83.0803   11.1464 C.3     1  UNL1        0.0477
     23 C          62.6125   78.3847   14.6135 C.3     1  UNL1        0.2526
     24 O          63.2296   79.7415   14.7817 O.3     1  UNL1       -0.4684
     25 O          60.4229   80.7487   14.4528 O.3     1  UNL1       -0.4684
     26 C          59.0874   80.4714   13.8287 C.3     1  UNL1        0.2526
     27 C          62.7567   88.6071   11.7596 C.ar    1  UNL1       -0.0226
     28 C          63.3490   87.7546   12.8423 C.ar    1  UNL1       -0.0012
     29 C          64.2505   88.3689   13.8719 C.ar    1  UNL1        0.0366
     30 C          64.5597   89.8357   13.8186 C.ar    1  UNL1        0.1393
     31 C          63.9674   90.6882   12.7358 C.ar    1  UNL1        0.0366
     32 C          63.0659   90.0739   11.7063 C.ar    1  UNL1       -0.0012
     33 O          65.4612   90.4500   14.8481 O.3     1  UNL1       -0.4656
     34 C          65.9921   91.8385   14.6474 C.3     1  UNL1        0.2897
     35 C          66.7745   92.1710   13.4115 C.2     1  UNL1        0.2707
     36 O          68.2700   92.0548   13.4167 O.2     1  UNL1       -0.2707
     37 N          66.0614   92.6196   12.1705 N.am    1  UNL1       -0.2797
     38 H          65.0799   92.6959   12.1671 H       1  UNL1        0.1550
     39 C          66.8438   92.9521   10.9346 C.ar    1  UNL1        0.0682
     40 C          67.8602   91.9833   10.4071 C.ar    1  UNL1        0.0162
     41 C          68.6426   92.3157    9.1713 C.ar    1  UNL1        0.0014
     42 C          68.4086   93.6170    8.4629 C.ar    1  UNL1        0.0016
     43 C          67.3921   94.5858    8.9904 C.ar    1  UNL1        0.0189
     44 C          67.1581   95.8871    8.2819 C.ar    1  UNL1        0.0031
     45 C          66.1417   96.8560    8.8093 C.ar    1  UNL1        0.0207
     46 C          65.3593   96.5235   10.0452 C.ar    1  UNL1        0.0989
     47 N          65.5933   95.2222   10.7536 N.ar    1  UNL1       -0.2426
     48 C          66.6097   94.2534   10.2262 C.ar    1  UNL1        0.0947
@<TRIPOS>BOND
     1    23    24    1
     2    24    11    1
     3    11    12   ar
     4    12    13   ar
     5    13    14   ar
     6    14    15   ar
     7    15    16   ar
     8    16    25    1
     9    25    26    1
    10    14    17    1
    11    17    18    1
    12    18    19   am
    13    19    20    2
    14    19     1    1
    15     1     2    1
    16     2     3    1
    17     3     4    1
    18     4     5    1
    19     5     6    1
    20     5     7    1
    21     7     8    1
    22     8    27    1
    23    27    28   ar
    24    28    29   ar
    25    29    30   ar
    26    30    33    1
    27    33    34    1
    28    34    35    1
    29    35    36    2
    30    35    37   am
    31    37    39    1
    32    39    40   ar
    33    40    41   ar
    34    41    42   ar
    35    42    43   ar
    36    43    44   ar
    37    44    45   ar
    38    45    46   ar
    39    46    47   ar
    40    47    48   ar
    41    30    31   ar
    42    31    32   ar
    43     8     9    1
    44     8    10    1
    45    18    21    1
    46    21    22    1
    47    16    11   ar
    48     6     1    1
    49    32    27   ar
    50    22    13    1
    51    10     1    1
    52     9     3    1
    53    48    39   ar
    54    48    43   ar
    55    37    38    1
@<TRIPOS>MOLECULE
*****
 48 55 0 0 0
SMALL
GASTEIGER

@<TRIPOS>ATOM
      1 C          62.9620   82.8991   11.9747 C.3     1  UNL1        0.0694
      2 C          62.8637   83.4839   13.3525 C.3     1  UNL1        0.0086
      3 C          62.3704   82.6416   14.4914 C.3     1  UNL1        0.0008
      4 C          61.9754   81.2144   14.2525 C.3     1  UNL1        0.0000
      5 C          62.0737   80.6295   12.8747 C.3     1  UNL1        0.0008
      6 C          62.5670   81.4718   11.7358 C.3     1  UNL1        0.0086
      7 C          63.0874   83.7495   12.6580 C.3     1  UNL1        0.0041
      8 C          63.2587   84.9112   13.5914 C.3     1  UNL1        0.0194
      9 C          62.7654   84.0688   14.7303 C.3     1  UNL1        0.0041
     10 C          63.3570   84.3262   12.2136 C.3     1  UNL1        0.0127
     11 C          59.8368   89.5819   10.6247 C.ar    1  UNL1        0.1721
     12 C          60.9552   89.0877    9.7558 C.ar    1  UNL1        0.0356
     13 C          61.5803   87.7511   10.0258 C.ar    1  UNL1       -0.0196
     14 C          61.0869   86.9088   11.1647 C.ar    1  UNL1       -0.0030
     15 C          59.9685   87.4031   12.0336 C.ar    1  UNL1        0.0371
     16 C          59.3435   88.7396   11.7636 C.ar    1  UNL1        0.1721
     17 C          61.7119   85.5722   11.4347 C.3     1  UNL1        0.1199
     18 N          62.8303   85.0780   10.5658 N.am    1  UNL1       -0.2751
     19 C          63.4554   83.7414   10.8358 C.2     1  UNL1        0.2250
     20 O          64.5737   83.2472    9.9669 O.2     1  UNL1       -0.2749
     21 C          63.3236   85.9204    9.4269 C.3     1  UNL1        0.0984
     22 C          62.6986   87.2569    9.1569 C.3     1  UNL1        0.0477
     23 C          58.6371   91.7198   11.4851 C.3     1  UNL1        0.2526
     24 O          59.2118   90.9186   10.3547 O.3     1  UNL1       -0.4684
     25 O          58.2251   89.2339   12.6325 O.3     1  UNL1       -0.4684
     26 C          57.3913   88.2583   13.4090 C.3     1  UNL1        0.2526
     27 C          63.6537   86.3383   13.8302 C.ar    1  UNL1       -0.0226
     28 C          64.2443   86.7425   15.1485 C.ar    1  UNL1       -0.0012
     29 C          64.6394   88.1697   15.3874 C.ar    1  UNL1        0.0366
     30 C          64.4438   89.1928   14.3080 C.ar    1  UNL1        0.1393
     31 C          63.8531   88.7886   12.9897 C.ar    1  UNL1        0.0366
     32 C          63.4581   87.3614   12.7508 C.ar    1  UNL1       -0.0012
     33 O          64.8388   90.6199   14.5468 O.3     1  UNL1       -0.4656
     34 C          66.2855   91.0142   14.5081 C.3     1  UNL1        0.2897
     35 C          66.7413   92.1044   13.5841 C.2     1  UNL1        0.2707
     36 O          68.1827   92.5192   13.5670 O.2     1  UNL1       -0.2707
     37 N          65.7557   92.7798   12.6772 N.am    1  UNL1       -0.2797
     38 H          64.8096   92.5076   12.6885 H       1  UNL1        0.1550
     39 C          66.2115   93.8700   11.7532 C.ar    1  UNL1        0.0682
     40 C          65.8404   95.2958   12.0349 C.ar    1  UNL1        0.0162
     41 C          66.2961   96.3860   11.1110 C.ar    1  UNL1        0.0014
     42 C          67.1230   96.0504    9.9053 C.ar    1  UNL1        0.0016
     43 C          67.4941   94.6246    9.6236 C.ar    1  UNL1        0.0189
     44 C          68.3210   94.2890    8.4179 C.ar    1  UNL1        0.0031
     45 C          68.6920   92.8632    8.1362 C.ar    1  UNL1        0.0207
     46 C          68.2362   91.7730    9.0602 C.ar    1  UNL1        0.0989
     47 N          67.4094   92.1086   10.2658 N.ar    1  UNL1       -0.2426
     48 C          67.0383   93.5344   10.5476 C.ar    1  UNL1        0.0947
@<TRIPOS>BOND
     1    23    24    1
     2    24    11    1
     3    11    12   ar
     4    12    13   ar
     5    13    14   ar
     6    14    15   ar
     7    15    16   ar
     8    16    25    1
     9    25    26    1
    10    14    17    1
    11    17    18    1
    12    18    19   am
    13    19    20    2
    14    19     1    1
    15     1     2    1
    16     2     3    1
    17     3     4    1
    18     4     5    1
    19     5     6    1
    20     5     7    1
    21     7     8    1
    22     8    27    1
    23    27    28   ar
    24    28    29   ar
    25    29    30   ar
    26    30    33    1
    27    33    34    1
    28    34    35    1
    29    35    36    2
    30    35    37   am
    31    37    39    1
    32    39    40   ar
    33    40    41   ar
    34    41    42   ar
    35    42    43   ar
    36    43    44   ar
    37    44    45   ar
    38    45    46   ar
    39    46    47   ar
    40    47    48   ar
    41    30    31   ar
    42    31    32   ar
    43     8     9    1
    44     8    10    1
    45    18    21    1
    46    21    22    1
    47    16    11   ar
    48     6     1    1
    49    32    27   ar
    50    22    13    1
    51    10     1    1
    52     9     3    1
    53    48    39   ar
    54    48    43   ar
    55    37    38    1
@<TRIPOS>MOLECULE
*****
 48 55 0 0 0
SMALL
GASTEIGER

@<TRIPOS>ATOM
      1 C          60.5660   86.3002    7.4547 C.3     1  UNL1        0.0694
      2 C          61.8642   86.2970    8.2061 C.3     1  UNL1        0.0086
      3 C          62.9110   85.2701    7.8905 C.3     1  UNL1        0.0008
      4 C          62.6596   84.2463    6.8235 C.3     1  UNL1        0.0000
      5 C          61.3613   84.2494    6.0720 C.3     1  UNL1        0.0008
      6 C          60.3146   85.2764    6.3876 C.3     1  UNL1        0.0086
      7 C          61.2210   86.7316    8.2233 C.3     1  UNL1        0.0041
      8 C          62.1156   87.3209    9.2732 C.3     1  UNL1        0.0194
      9 C          63.1624   86.2939    8.9576 C.3     1  UNL1        0.0041
     10 C          60.8174   87.3240    8.5217 C.3     1  UNL1        0.0127
     11 C          60.3117   92.7117    3.5715 C.ar    1  UNL1        0.1721
     12 C          59.3158   92.4563    4.6637 C.ar    1  UNL1        0.0356
     13 C          59.3667   91.1740    5.4404 C.ar    1  UNL1       -0.0196
     14 C          60.4134   90.1471    5.1248 C.ar    1  UNL1       -0.0030
     15 C          61.4094   90.4024    4.0325 C.ar    1  UNL1        0.0371
     16 C          61.3585   91.6847    3.2559 C.ar    1  UNL1        0.1721
     17 C          60.4643   88.8648    5.9014 C.3     1  UNL1        0.1199
     18 N          59.4684   88.6095    6.9936 N.am    1  UNL1       -0.2751
     19 C          59.5192   87.3272    7.7703 C.2     1  UNL1        0.2250
     20 O          58.5233   87.0719    8.8625 O.2     1  UNL1       -0.2749
     21 C          58.4216   89.6365    7.3092 C.3     1  UNL1        0.0984
     22 C          58.3708   90.9187    6.5326 C.3     1  UNL1        0.0477
     23 C          59.7602   93.9950    1.3809 C.3     1  UNL1        0.2526
     24 O          60.2609   93.9940    2.7949 O.3     1  UNL1       -0.4684
     25 O          62.3545   91.9400    2.1637 O.3     1  UNL1       -0.4684
     26 C          63.2266   93.1594    2.2140 C.3     1  UNL1        0.2526
     27 C          62.3670   88.3447   10.3402 C.ar    1  UNL1       -0.0226
     28 C          62.8124   87.9113   11.7054 C.ar    1  UNL1       -0.0012
     29 C          63.0639   88.9351   12.7725 C.ar    1  UNL1        0.0366
     30 C          62.8699   90.3923   12.4743 C.ar    1  UNL1        0.1393
     31 C          62.4244   90.8257   11.1091 C.ar    1  UNL1        0.0366
     32 C          62.1730   89.8019   10.0421 C.ar    1  UNL1       -0.0012
     33 O          63.1212   91.4161   13.5414 O.3     1  UNL1       -0.4656
     34 C          64.5056   91.6067   14.0866 C.3     1  UNL1        0.2897
     35 C          65.6325   91.9648   13.1636 C.2     1  UNL1        0.2707
     36 O          67.0525   91.8436   13.6314 O.2     1  UNL1       -0.2707
     37 N          65.3394   92.4441   11.7728 N.am    1  UNL1       -0.2797
     38 H          64.4074   92.5236   11.4657 H       1  UNL1        0.1550
     39 C          66.4663   92.8021   10.8498 C.ar    1  UNL1        0.0682
     40 C          67.5624   91.8128   10.5853 C.ar    1  UNL1        0.0162
     41 C          68.6893   92.1709    9.6624 C.ar    1  UNL1        0.0014
     42 C          68.7201   93.5182    9.0038 C.ar    1  UNL1        0.0016
     43 C          67.6240   94.5075    9.2683 C.ar    1  UNL1        0.0189
     44 C          67.6549   95.8549    8.6096 C.ar    1  UNL1        0.0031
     45 C          66.5588   96.8442    8.8741 C.ar    1  UNL1        0.0207
     46 C          65.4319   96.4861    9.7971 C.ar    1  UNL1        0.0989
     47 N          65.4011   95.1388   10.4556 N.ar    1  UNL1       -0.2426
     48 C          66.4971   94.1495   10.1912 C.ar    1  UNL1        0.0947
@<TRIPOS>BOND
     1    23    24    1
     2    24    11    1
     3    11    12   ar
     4    12    13   ar
     5    13    14   ar
     6    14    15   ar
     7    15    16   ar
     8    16    25    1
     9    25    26    1
    10    14    17    1
    11    17    18    1
    12    18    19   am
    13    19    20    2
    14    19     1    1
    15     1     2    1
    16     2     3    1
    17     3     4    1
    18     4     5    1
    19     5     6    1
    20     5     7    1
    21     7     8    1
    22     8    27    1
    23    27    28   ar
    24    28    29   ar
    25    29    30   ar
    26    30    33    1
    27    33    34    1
    28    34    35    1
    29    35    36    2
    30    35    37   am
    31    37    39    1
    32    39    40   ar
    33    40    41   ar
    34    41    42   ar
    35    42    43   ar
    36    43    44   ar
    37    44    45   ar
    38    45    46   ar
    39    46    47   ar
    40    47    48   ar
    41    30    31   ar
    42    31    32   ar
    43     8     9    1
    44     8    10    1
    45    18    21    1
    46    21    22    1
    47    16    11   ar
    48     6     1    1
    49    32    27   ar
    50    22    13    1
    51    10     1    1
    52     9     3    1
    53    48    39   ar
    54    48    43   ar
    55    37    38    1
