@<TRIPOS>MOLECULE
*****
 49 55 0 0 0
SMALL
GASTEIGER

@<TRIPOS>ATOM
      1 C          64.6088   91.4388   12.3380 C.3     1  UNL1        0.0194
      2 C          64.9978   91.4819   13.7860 C.3     1  UNL1        0.0041
      3 C          66.1230   92.3669   14.2342 C.3     1  UNL1        0.0008
      4 C          66.8591   93.2086   13.2344 C.3     1  UNL1        0.0000
      5 C          66.4701   93.1655   11.7864 C.3     1  UNL1        0.0008
      6 C          64.4621   91.1012   13.3726 C.3     1  UNL1        0.0086
      7 C          64.2617   90.6402   14.7858 C.3     1  UNL1        0.0694
      8 C          65.3869   91.5251   15.2340 C.3     1  UNL1        0.0086
      9 C          63.8727   90.5970   13.3378 C.3     1  UNL1        0.0127
     10 C          65.3449   92.2806   11.3382 C.3     1  UNL1        0.0041
     11 C          63.5256   89.7984   15.7856 C.2     1  UNL1        0.2248
     12 O          62.6785   90.4516   16.8371 O.2     1  UNL1       -0.2749
     13 N          63.6366   88.3034   15.7339 N.am    1  UNL1       -0.2767
     14 C          62.9005   87.4617   16.7337 C.3     1  UNL1        0.1107
     15 C          63.0116   85.9666   16.6819 C.3     1  UNL1        0.0942
     16 N          63.8587   85.3134   15.6304 N.3     1  UNL1       -0.2660
     17 C          64.5948   86.1552   14.6306 C.3     1  UNL1        0.0942
     18 C          64.4838   87.6502   14.6823 C.3     1  UNL1        0.1107
     19 C          63.9697   83.8184   15.5786 C.3     1  UNL1        0.0993
     20 C          63.5851   83.0805   14.3306 C.ar    1  UNL1       -0.0031
     21 C          62.4856   82.0608   14.3709 C.ar    1  UNL1       -0.0027
     22 C          62.1010   81.3230   13.1229 C.ar    1  UNL1        0.0028
     23 C          62.8157   81.6048   11.8345 C.ar    1  UNL1        0.0369
     24 C          63.9151   82.6245   11.7943 C.ar    1  UNL1        0.1385
     25 C          64.2998   83.3623   13.0423 C.ar    1  UNL1        0.0340
     26 O          64.6298   82.9063   10.5060 O.3     1  UNL1       -0.4714
     27 C          63.9406   83.6766    9.4189 C.3     1  UNL1        0.2525
     28 C          61.2333   88.7840   10.9932 C.ar    1  UNL1        0.1393
     29 C          62.4276   88.1895   11.6791 C.ar    1  UNL1        0.0366
     30 C          63.5527   89.0744   12.1273 C.ar    1  UNL1       -0.0012
     31 C          63.4836   90.5539   11.8897 C.ar    1  UNL1       -0.0226
     32 C          62.2894   91.1484   11.2039 C.ar    1  UNL1       -0.0012
     33 C          61.1642   90.2635   10.7556 C.ar    1  UNL1        0.0366
     34 O          60.1082   87.8991   10.5450 O.3     1  UNL1       -0.4656
     35 C          60.1060   87.3345    9.1553 C.3     1  UNL1        0.2897
     36 N          60.0766   89.4183    7.6038 N.am    1  UNL1       -0.2809
     37 C          59.4828   88.1091    8.0320 C.2     1  UNL1        0.2707
     38 O          58.2658   87.5745    7.3371 O.2     1  UNL1       -0.2707
     39 H          60.8754   89.7692    8.0599 H       1  UNL1        0.1550
     40 C          59.6987   91.7125    4.3876 C.ar    1  UNL1        0.0769
     41 C          58.2069   91.7419    4.2341 C.ar    1  UNL1        0.0065
     42 C          57.3383   90.9969    5.2039 C.ar    1  UNL1        0.0015
     43 C          57.9615   90.2223    6.3271 C.ar    1  UNL1        0.0147
     44 C          59.4534   90.1928    6.4806 C.ar    1  UNL1        0.0506
     45 C          60.3220   90.9379    5.5108 C.ar    1  UNL1        0.0211
     46 C          60.5672   92.4575    3.4178 C.2     1  UNL1        0.3414
     47 O          60.0001   93.5988    2.6266 O.2     1  UNL1       -0.2449
     48 C          62.7834   92.5784    2.0673 C.3     1  UNL1        0.2560
     49 O          62.0029   92.0614    3.2392 O.3     1  UNL1       -0.4413
@<TRIPOS>BOND
     1    48    49    1
     2    49    46    1
     3    46    47    2
     4    46    40    1
     5    40    41   ar
     6    41    42   ar
     7    42    43   ar
     8    43    44   ar
     9    44    36    1
    10    36    37   am
    11    37    38    2
    12    37    35    1
    13    35    34    1
    14    34    28    1
    15    28    29   ar
    16    29    30   ar
    17    30    31   ar
    18    31     1    1
    19     1     2    1
    20     2     3    1
    21     3     4    1
    22     4     5    1
    23     5     6    1
    24     6     7    1
    25     7    11    1
    26    11    12    2
    27    11    13   am
    28    13    14    1
    29    14    15    1
    30    15    16    1
    31    16    19    1
    32    19    20    1
    33    20    21   ar
    34    21    22   ar
    35    22    23   ar
    36    23    24   ar
    37    24    26    1
    38    26    27    1
    39    24    25   ar
    40    16    17    1
    41    17    18    1
    42     7     8    1
    43     7     9    1
    44     5    10    1
    45    31    32   ar
    46    32    33   ar
    47    44    45   ar
    48    45    40   ar
    49    33    28   ar
    50     9     1    1
    51    10     1    1
    52     8     3    1
    53    18    13    1
    54    25    20   ar
    55    36    39    1
@<TRIPOS>MOLECULE
*****
 49 55 0 0 0
SMALL
GASTEIGER

@<TRIPOS>ATOM
      1 C          61.1781   86.8140    9.1070 C.3     1  UNL1        0.0194
      2 C          61.3050   88.2369    9.5644 C.3     1  UNL1        0.0041
      3 C          60.5471   89.3219    8.8585 C.3     1  UNL1        0.0008
      4 C          59.6624   88.9841    7.6953 C.3     1  UNL1        0.0000
      5 C          59.5355   87.5612    7.2379 C.3     1  UNL1        0.0008
      6 C          61.6057   87.5582    9.7920 C.3     1  UNL1        0.0086
      7 C          62.1897   88.5748   10.7276 C.3     1  UNL1        0.0694
      8 C          61.4319   89.6598   10.0217 C.3     1  UNL1        0.0086
      9 C          62.0629   87.1519   10.2702 C.3     1  UNL1        0.0127
     10 C          60.2933   86.4761    7.9438 C.3     1  UNL1        0.0041
     11 C          63.0745   88.9127   11.8908 C.2     1  UNL1        0.2248
     12 O          63.2669   87.9210   12.9996 O.2     1  UNL1       -0.2749
     13 N          63.7668   90.2422   11.9451 N.am    1  UNL1       -0.2767
     14 C          64.6516   90.5801   13.1083 C.3     1  UNL1        0.1107
     15 C          65.3440   91.9097   13.1627 C.3     1  UNL1        0.0942
     16 N          65.1515   92.9013   12.0538 N.3     1  UNL1       -0.2660
     17 C          64.2668   92.5634   10.8906 C.3     1  UNL1        0.0942
     18 C          63.5744   91.2339   10.8362 C.3     1  UNL1        0.1107
     19 C          65.8439   94.2309   12.1081 C.3     1  UNL1        0.0993
     20 C          66.5070   94.7819   10.8807 C.ar    1  UNL1       -0.0031
     21 C          66.5314   96.2626   10.6420 C.ar    1  UNL1       -0.0027
     22 C          67.1946   96.8135    9.4145 C.ar    1  UNL1        0.0028
     23 C          67.8334   95.8838    8.4257 C.ar    1  UNL1        0.0369
     24 C          67.8089   94.4031    8.6645 C.ar    1  UNL1        0.1385
     25 C          67.1458   93.8522    9.8920 C.ar    1  UNL1        0.0340
     26 O          68.4477   93.4734    7.6758 O.3     1  UNL1       -0.4714
     27 C          69.0373   92.1747    8.1401 C.3     1  UNL1        0.2525
     28 C          63.4517   83.5587   11.2246 C.ar    1  UNL1        0.1393
     29 C          62.3982   84.3360   11.9568 C.ar    1  UNL1        0.0366
     30 C          61.6404   85.4211   11.2509 C.ar    1  UNL1       -0.0012
     31 C          61.9360   85.7289    9.8129 C.ar    1  UNL1       -0.0226
     32 C          62.9895   84.9517    9.0808 C.ar    1  UNL1       -0.0012
     33 C          63.7473   83.8665    9.7866 C.ar    1  UNL1        0.0366
     34 O          64.2095   82.4737   11.9305 O.3     1  UNL1       -0.4656
     35 C          64.8684   82.7545   13.2485 C.3     1  UNL1        0.2897
     36 N          64.7821   84.9333   14.6610 N.am    1  UNL1       -0.2809
     37 C          64.1793   83.6190   14.2624 C.2     1  UNL1        0.2707
     38 O          62.8873   83.1690   14.8776 O.2     1  UNL1       -0.2707
     39 H          65.6301   85.2286   14.2573 H       1  UNL1        0.1550
     40 C          63.2498   88.1332   16.4395 C.ar    1  UNL1        0.0769
     41 C          62.7148   87.5265   17.7027 C.ar    1  UNL1        0.0065
     42 C          62.8690   86.0554   17.9521 C.ar    1  UNL1        0.0015
     43 C          63.5581   85.1910   16.9382 C.ar    1  UNL1        0.0147
     44 C          64.0931   85.7977   15.6749 C.ar    1  UNL1        0.0506
     45 C          63.9389   87.2688   15.4255 C.ar    1  UNL1        0.0211
     46 C          63.0956   89.6043   16.1901 C.2     1  UNL1        0.3414
     47 O          62.3111   90.0860   15.0057 O.2     1  UNL1       -0.2449
     48 C          64.2223   91.9088   16.6019 C.3     1  UNL1        0.2560
     49 O          63.7258   90.5935   17.1250 O.3     1  UNL1       -0.4413
@<TRIPOS>BOND
     1    48    49    1
     2    49    46    1
     3    46    47    2
     4    46    40    1
     5    40    41   ar
     6    41    42   ar
     7    42    43   ar
     8    43    44   ar
     9    44    36    1
    10    36    37   am
    11    37    38    2
    12    37    35    1
    13    35    34    1
    14    34    28    1
    15    28    29   ar
    16    29    30   ar
    17    30    31   ar
    18    31     1    1
    19     1     2    1
    20     2     3    1
    21     3     4    1
    22     4     5    1
    23     5     6    1
    24     6     7    1
    25     7    11    1
    26    11    12    2
    27    11    13   am
    28    13    14    1
    29    14    15    1
    30    15    16    1
    31    16    19    1
    32    19    20    1
    33    20    21   ar
    34    21    22   ar
    35    22    23   ar
    36    23    24   ar
    37    24    26    1
    38    26    27    1
    39    24    25   ar
    40    16    17    1
    41    17    18    1
    42     7     8    1
    43     7     9    1
    44     5    10    1
    45    31    32   ar
    46    32    33   ar
    47    44    45   ar
    48    45    40   ar
    49    33    28   ar
    50     9     1    1
    51    10     1    1
    52     8     3    1
    53    18    13    1
    54    25    20   ar
    55    36    39    1
