@<TRIPOS>MOLECULE
*****
 31 35 0 0 0
SMALL
GASTEIGER

@<TRIPOS>ATOM
      1 C          65.8439   93.6159   11.5942 C.2     1  UNL1        0.0724
      2 C          66.5278   94.0782   12.8465 C.2     1  UNL1        0.0077
      3 C          66.4064   93.2750   14.1076 C.2     1  UNL1        0.0501
      4 C          65.6011   92.0096   14.1162 C.2     1  UNL1        0.2321
      5 N          65.3035   91.0166   15.2003 N.2     1  UNL1       -0.0308
      6 C          64.4357   89.9406   14.6180 C.2     1  UNL1        0.3752
      7 N          64.1968   90.2686   13.1739 N.2     1  UNL1       -0.0347
      8 C          64.9171   91.5474   12.8638 C.2     1  UNL1        0.2180
      9 C          65.0385   92.3505   11.6028 C.3     1  UNL1        0.1118
     10 C          63.9006   88.7463   15.3511 C.ar    1  UNL1        0.0884
     11 C          63.4585   88.8785   16.7784 C.ar    1  UNL1        0.0077
     12 C          62.9234   87.6842   17.5114 C.ar    1  UNL1        0.0003
     13 C          62.8305   86.3578   16.8173 C.ar    1  UNL1        0.0016
     14 C          63.2726   86.2256   15.3900 C.ar    1  UNL1        0.0194
     15 C          63.8076   87.4199   14.6569 C.ar    1  UNL1        0.0092
     16 C          63.1796   84.8991   14.6959 C.ar    1  UNL1        0.1004
     17 C          63.7930   84.5520   13.3717 C.ar    1  UNL1        0.1006
     18 N          63.4493   83.1251   13.0616 N.ar    1  UNL1       -0.2875
     19 C          63.7817   82.2437   11.8942 C.ar    1  UNL1        0.0815
     20 C          63.2883   80.8276   11.8593 C.ar    1  UNL1        0.0191
     21 C          62.4627   80.2930   12.9917 C.ar    1  UNL1        0.0046
     22 C          62.1303   81.1744   14.1590 C.ar    1  UNL1        0.0374
     23 C          62.6237   82.5905   14.1940 C.ar    1  UNL1        0.1478
     24 N          62.4570   83.6868   15.2040 N.ar    1  UNL1       -0.2264
     25 N          65.0450   95.5786   10.0909 N.2     1  UNL1       -0.0957
     26 C          65.9653   94.4191   10.3331 C.2     1  UNL1        0.3452
     27 H          65.1247   96.1057    9.2632 H       1  UNL1        0.3635
     28 N          67.0069   94.0628    9.3143 N.3     1  UNL1       -0.1293
     29 O          68.4318   93.8610    9.7375 O.3     1  UNL1       -0.2093
     30 H          66.7554   93.9613    8.3679 H       1  UNL1        0.3483
     31 H          68.5071   93.9974   10.6949 H       1  UNL1        0.2712
@<TRIPOS>BOND
     1    25    26    2
     2    26    28    1
     3    28    29    1
     4    26     1    1
     5     1     2    2
     6     2     3    1
     7     3     4    2
     8     4     5    1
     9     5     6    2
    10     6    10    1
    11    10    11   ar
    12    11    12   ar
    13    12    13   ar
    14    13    14   ar
    15    14    16    1
    16    16    17   ar
    17    17    18   ar
    18    18    19   ar
    19    19    20   ar
    20    20    21   ar
    21    21    22   ar
    22    22    23   ar
    23    23    24   ar
    24    14    15   ar
    25     6     7    1
    26     7     8    2
    27     8     9    1
    28     9     1    1
    29     8     4    1
    30    15    10   ar
    31    24    16   ar
    32    23    18   ar
    33    25    27    1
    34    28    30    1
    35    29    31    1
@<TRIPOS>MOLECULE
*****
 31 35 0 0 0
SMALL
GASTEIGER

@<TRIPOS>ATOM
      1 C          63.0978   83.7301   13.3301 C.2     1  UNL1        0.0724
      2 C          62.4499   84.2277   12.0721 C.2     1  UNL1        0.0077
      3 C          62.4913   85.6886   11.7343 C.2     1  UNL1        0.0501
      4 C          63.1807   86.6519   12.6544 C.2     1  UNL1        0.2321
      5 N          63.3819   88.1367   12.5855 N.2     1  UNL1       -0.0308
      6 C          64.1541   88.5568   13.8009 C.2     1  UNL1        0.3752
      7 N          64.4302   87.3317   14.6210 N.2     1  UNL1       -0.0347
      8 C          63.8286   86.1543   13.9124 C.2     1  UNL1        0.2180
      9 C          63.7872   84.6934   14.2502 C.3     1  UNL1        0.1118
     10 C          64.5761   89.9565   14.1371 C.ar    1  UNL1        0.0884
     11 C          64.5345   90.4312   15.5594 C.ar    1  UNL1        0.0077
     12 C          64.9564   91.8307   15.8956 C.ar    1  UNL1        0.0003
     13 C          65.4200   92.7556   14.8095 C.ar    1  UNL1        0.0016
     14 C          65.4616   92.2810   13.3872 C.ar    1  UNL1        0.0194
     15 C          65.0396   90.8814   13.0510 C.ar    1  UNL1        0.0092
     16 C          65.9252   93.2060   12.3011 C.ar    1  UNL1        0.1004
     17 C          66.4377   92.7954   10.9525 C.ar    1  UNL1        0.1006
     18 N          66.7869   94.0397   10.1909 N.ar    1  UNL1       -0.2875
     19 C          67.3367   94.2510    8.8114 C.ar    1  UNL1        0.0815
     20 C          67.5898   95.6418    8.3098 C.ar    1  UNL1        0.0191
     21 C          67.2932   96.8213    9.1878 C.ar    1  UNL1        0.0046
     22 C          66.7434   96.6099   10.5673 C.ar    1  UNL1        0.0374
     23 C          66.4902   95.2192   11.0689 C.ar    1  UNL1        0.1478
     24 N          65.9577   94.7039   12.3730 N.ar    1  UNL1       -0.2264
     25 N          63.8879   81.2950   12.8874 N.2     1  UNL1       -0.0957
     26 C          63.0563   82.2692   13.6679 C.2     1  UNL1        0.3452
     27 H          63.8607   80.3362   13.1092 H       1  UNL1        0.3635
     28 N          62.1831   81.7826   14.7863 N.3     1  UNL1       -0.1293
     29 O          60.8721   81.1210   14.4807 O.3     1  UNL1       -0.2093
     30 H          62.4706   81.8974   15.7209 H       1  UNL1        0.3483
     31 H          60.7426   81.0881   13.5200 H       1  UNL1        0.2712
@<TRIPOS>BOND
     1    25    26    2
     2    26    28    1
     3    28    29    1
     4    26     1    1
     5     1     2    2
     6     2     3    1
     7     3     4    2
     8     4     5    1
     9     5     6    2
    10     6    10    1
    11    10    11   ar
    12    11    12   ar
    13    12    13   ar
    14    13    14   ar
    15    14    16    1
    16    16    17   ar
    17    17    18   ar
    18    18    19   ar
    19    19    20   ar
    20    20    21   ar
    21    21    22   ar
    22    22    23   ar
    23    23    24   ar
    24    14    15   ar
    25     6     7    1
    26     7     8    2
    27     8     9    1
    28     9     1    1
    29     8     4    1
    30    15    10   ar
    31    24    16   ar
    32    23    18   ar
    33    25    27    1
    34    28    30    1
    35    29    31    1
@<TRIPOS>MOLECULE
*****
 31 35 0 0 0
SMALL
GASTEIGER

@<TRIPOS>ATOM
      1 C          63.4140   82.7366   12.9286 C.2     1  UNL1        0.0724
      2 C          63.7376   82.4280   14.3604 C.2     1  UNL1        0.0077
      3 C          64.0004   83.5442   15.3273 C.2     1  UNL1        0.0501
      4 C          63.9396   84.9691   14.8624 C.2     1  UNL1        0.2321
      5 N          64.1506   86.2690   15.5805 N.2     1  UNL1       -0.0308
      6 C          63.9573   87.3810   14.5925 C.2     1  UNL1        0.3752
      7 N          63.6269   86.7683   13.2638 N.2     1  UNL1       -0.0347
      8 C          63.6160   85.2776   13.4307 C.2     1  UNL1        0.2180
      9 C          63.3532   84.1614   12.4638 C.3     1  UNL1        0.1118
     10 C          64.0740   88.8482   14.8824 C.ar    1  UNL1        0.0884
     11 C          63.5905   89.3945   16.1930 C.ar    1  UNL1        0.0077
     12 C          63.7071   90.8615   16.4829 C.ar    1  UNL1        0.0003
     13 C          64.3073   91.7823   15.4622 C.ar    1  UNL1        0.0016
     14 C          64.7907   91.2360   14.1515 C.ar    1  UNL1        0.0194
     15 C          64.6741   89.7689   13.8616 C.ar    1  UNL1        0.0092
     16 C          65.3909   92.1569   13.1307 C.ar    1  UNL1        0.1004
     17 C          66.0361   91.7433   11.8413 C.ar    1  UNL1        0.1006
     18 N          66.4952   92.9839   11.1339 N.ar    1  UNL1       -0.2875
     19 C          67.1957   93.1912    9.8239 C.ar    1  UNL1        0.0815
     20 C          67.5346   94.5788    9.3660 C.ar    1  UNL1        0.0191
     21 C          67.1730   95.7590   10.2182 C.ar    1  UNL1        0.0046
     22 C          66.4725   95.5517   11.5283 C.ar    1  UNL1        0.0374
     23 C          66.1336   94.1641   11.9861 C.ar    1  UNL1        0.1478
     24 N          65.4511   93.6530   13.2202 N.ar    1  UNL1       -0.2264
     25 N          62.5477   80.3352   12.4458 N.2     1  UNL1       -0.0957
     26 C          63.1511   81.6203   11.9617 C.2     1  UNL1        0.3452
     27 H          62.3752   79.6026   11.8112 H       1  UNL1        0.3635
     28 N          63.4917   81.7891   10.5107 N.3     1  UNL1       -0.1293
     29 O          64.8155   82.3725   10.1140 O.3     1  UNL1       -0.2093
     30 H          62.8464   81.5171    9.8188 H       1  UNL1        0.3483
     31 H          65.3270   82.5847   10.9104 H       1  UNL1        0.2712
@<TRIPOS>BOND
     1    25    26    2
     2    26    28    1
     3    28    29    1
     4    26     1    1
     5     1     2    2
     6     2     3    1
     7     3     4    2
     8     4     5    1
     9     5     6    2
    10     6    10    1
    11    10    11   ar
    12    11    12   ar
    13    12    13   ar
    14    13    14   ar
    15    14    16    1
    16    16    17   ar
    17    17    18   ar
    18    18    19   ar
    19    19    20   ar
    20    20    21   ar
    21    21    22   ar
    22    22    23   ar
    23    23    24   ar
    24    14    15   ar
    25     6     7    1
    26     7     8    2
    27     8     9    1
    28     9     1    1
    29     8     4    1
    30    15    10   ar
    31    24    16   ar
    32    23    18   ar
    33    25    27    1
    34    28    30    1
    35    29    31    1
@<TRIPOS>MOLECULE
*****
 31 35 0 0 0
SMALL
GASTEIGER

@<TRIPOS>ATOM
      1 C          62.5561   81.4900   12.7520 C.2     1  UNL1        0.0724
      2 C          62.8782   81.3532   11.2934 C.2     1  UNL1        0.0077
      3 C          62.9980   82.5766   10.4338 C.2     1  UNL1        0.0501
      4 C          62.7958   83.9368   11.0328 C.2     1  UNL1        0.2321
      5 N          62.8501   85.3132   10.4390 N.2     1  UNL1       -0.0308
      6 C          62.5615   86.3007   11.5306 C.2     1  UNL1        0.3752
      7 N          62.3289   85.5346   12.7990 N.2     1  UNL1       -0.0347
      8 C          62.4737   84.0736   12.4913 C.2     1  UNL1        0.2180
      9 C          62.3539   82.8502   13.3509 C.3     1  UNL1        0.1118
     10 C          62.5140   87.7924   11.3801 C.ar    1  UNL1        0.0884
     11 C          61.5222   88.4208   10.4465 C.ar    1  UNL1        0.0077
     12 C          61.4746   89.9124   10.2960 C.ar    1  UNL1        0.0003
     13 C          62.4188   90.7757   11.0791 C.ar    1  UNL1        0.0016
     14 C          63.4105   90.1474   12.0127 C.ar    1  UNL1        0.0194
     15 C          63.4581   88.6557   12.1632 C.ar    1  UNL1        0.0092
     16 C          64.3547   91.0107   12.7958 C.ar    1  UNL1        0.1004
     17 C          64.9642   92.2994   12.3291 C.ar    1  UNL1        0.1006
     18 N          65.8413   92.8220   13.4280 N.ar    1  UNL1       -0.2875
     19 C          66.6927   94.0525   13.5333 C.ar    1  UNL1        0.0815
     20 C          67.4766   94.3174   14.7844 C.ar    1  UNL1        0.0191
     21 C          67.4091   93.3518   15.9303 C.ar    1  UNL1        0.0046
     22 C          66.5576   92.1213   15.8250 C.ar    1  UNL1        0.0374
     23 C          65.7738   91.8565   14.5739 C.ar    1  UNL1        0.1478
     24 N          64.8550   90.7370   14.1832 N.ar    1  UNL1       -0.2264
     25 N          63.6539   79.6929   14.2735 N.2     1  UNL1       -0.0957
     26 C          62.4363   80.2666   13.6116 C.2     1  UNL1        0.3452
     27 H          63.5752   78.8899   14.8377 H       1  UNL1        0.3635
     28 N          61.0988   79.6169   13.8092 N.3     1  UNL1       -0.1293
     29 O          59.9878   80.3746   14.4737 O.3     1  UNL1       -0.2093
     30 H          60.9502   78.6932   13.5028 H       1  UNL1        0.3483
     31 H          60.2988   81.2620   14.7118 H       1  UNL1        0.2712
@<TRIPOS>BOND
     1    25    26    2
     2    26    28    1
     3    28    29    1
     4    26     1    1
     5     1     2    2
     6     2     3    1
     7     3     4    2
     8     4     5    1
     9     5     6    2
    10     6    10    1
    11    10    11   ar
    12    11    12   ar
    13    12    13   ar
    14    13    14   ar
    15    14    16    1
    16    16    17   ar
    17    17    18   ar
    18    18    19   ar
    19    19    20   ar
    20    20    21   ar
    21    21    22   ar
    22    22    23   ar
    23    23    24   ar
    24    14    15   ar
    25     6     7    1
    26     7     8    2
    27     8     9    1
    28     9     1    1
    29     8     4    1
    30    15    10   ar
    31    24    16   ar
    32    23    18   ar
    33    25    27    1
    34    28    30    1
    35    29    31    1
@<TRIPOS>MOLECULE
*****
 31 35 0 0 0
SMALL
GASTEIGER

@<TRIPOS>ATOM
      1 C          62.8516   81.5256   12.7023 C.2     1  UNL1        0.0724
      2 C          63.4211   81.2847   11.3357 C.2     1  UNL1        0.0077
      3 C          63.4707   82.4020   10.3362 C.2     1  UNL1        0.0501
      4 C          62.9508   83.7603   10.7033 C.2     1  UNL1        0.2321
      5 N          62.8686   85.0452    9.9337 N.2     1  UNL1       -0.0308
      6 C          62.2483   86.0803   10.8247 C.2     1  UNL1        0.3752
      7 N          61.9472   85.4351   12.1450 N.2     1  UNL1       -0.0347
      8 C          62.3814   84.0012   12.0699 C.2     1  UNL1        0.2180
      9 C          62.3318   82.8839   13.0694 C.3     1  UNL1        0.1118
     10 C          61.9768   87.5097   10.4596 C.ar    1  UNL1        0.0884
     11 C          60.7769   87.8566    9.6290 C.ar    1  UNL1        0.0077
     12 C          60.5054   89.2859    9.2638 C.ar    1  UNL1        0.0003
     13 C          61.4338   90.3682    9.7292 C.ar    1  UNL1        0.0016
     14 C          62.6337   90.0213   10.5597 C.ar    1  UNL1        0.0194
     15 C          62.9052   88.5920   10.9249 C.ar    1  UNL1        0.0092
     16 C          63.5621   91.1037   11.0251 C.ar    1  UNL1        0.1004
     17 C          64.1883   91.2040   12.3845 C.ar    1  UNL1        0.1006
     18 N          65.0405   92.4382   12.4122 N.ar    1  UNL1       -0.2875
     19 C          65.8943   93.0444   13.4863 C.ar    1  UNL1        0.0815
     20 C          66.6486   94.3129   13.2182 C.ar    1  UNL1        0.0191
     21 C          66.5491   94.9752   11.8761 C.ar    1  UNL1        0.0046
     22 C          65.6953   94.3690   10.8020 C.ar    1  UNL1        0.0374
     23 C          64.9411   93.1005   11.0701 C.ar    1  UNL1        0.1478
     24 N          64.0274   92.2757   10.2128 N.ar    1  UNL1       -0.2264
     25 N          64.0271   80.0532   14.4913 N.2     1  UNL1       -0.0957
     26 C          62.8020   80.4082   13.7019 C.2     1  UNL1        0.3452
     27 H          63.9945   79.3198   15.1473 H       1  UNL1        0.3635
     28 N          61.5274   79.6460   13.9120 N.3     1  UNL1       -0.1293
     29 O          60.2610   80.3788   14.2425 O.3     1  UNL1       -0.2093
     30 H          61.5220   78.6646   13.8330 H       1  UNL1        0.3483
     31 H          60.4396   81.3314   14.2821 H       1  UNL1        0.2712
@<TRIPOS>BOND
     1    25    26    2
     2    26    28    1
     3    28    29    1
     4    26     1    1
     5     1     2    2
     6     2     3    1
     7     3     4    2
     8     4     5    1
     9     5     6    2
    10     6    10    1
    11    10    11   ar
    12    11    12   ar
    13    12    13   ar
    14    13    14   ar
    15    14    16    1
    16    16    17   ar
    17    17    18   ar
    18    18    19   ar
    19    19    20   ar
    20    20    21   ar
    21    21    22   ar
    22    22    23   ar
    23    23    24   ar
    24    14    15   ar
    25     6     7    1
    26     7     8    2
    27     8     9    1
    28     9     1    1
    29     8     4    1
    30    15    10   ar
    31    24    16   ar
    32    23    18   ar
    33    25    27    1
    34    28    30    1
    35    29    31    1
@<TRIPOS>MOLECULE
*****
 31 35 0 0 0
SMALL
GASTEIGER

@<TRIPOS>ATOM
      1 C          71.6922   81.3330    7.0029 C.2     1  UNL1        0.0724
      2 C          71.8453   82.7090    7.5801 C.2     1  UNL1        0.0077
      3 C          72.1320   82.8814    9.0423 C.2     1  UNL1        0.0501
      4 C          72.2656   81.6777    9.9274 C.2     1  UNL1        0.2321
      5 N          72.5437   81.5366   11.3946 N.2     1  UNL1       -0.0308
      6 C          72.5625   80.0734   11.7242 C.2     1  UNL1        0.3752
      7 N          72.2960   79.3101   10.4607 N.2     1  UNL1       -0.0347
      8 C          72.1125   80.3017    9.3502 C.2     1  UNL1        0.2180
      9 C          71.8258   80.1294    7.8880 C.3     1  UNL1        0.1118
     10 C          72.8051   79.4779   13.0795 C.ar    1  UNL1        0.0884
     11 C          73.3598   80.3281   14.1838 C.ar    1  UNL1        0.0077
     12 C          73.6025   79.7328   15.5390 C.ar    1  UNL1        0.0003
     13 C          73.2905   78.2872   15.7899 C.ar    1  UNL1        0.0016
     14 C          72.7358   77.4370   14.6856 C.ar    1  UNL1        0.0194
     15 C          72.4931   78.0324   13.3304 C.ar    1  UNL1        0.0092
     16 C          72.4238   75.9914   14.9365 C.ar    1  UNL1        0.1004
     17 C          71.6188   75.0951   14.0428 C.ar    1  UNL1        0.1006
     18 N          71.5596   73.7381   14.6793 N.ar    1  UNL1       -0.2875
     19 C          70.9052   72.4574   14.2531 C.ar    1  UNL1        0.0815
     20 C          71.0192   71.2343   15.1139 C.ar    1  UNL1        0.0191
     21 C          71.7875   71.2919   16.4009 C.ar    1  UNL1        0.0046
     22 C          72.4418   72.5726   16.8271 C.ar    1  UNL1        0.0374
     23 C          72.3279   73.7957   15.9663 C.ar    1  UNL1        0.1478
     24 N          72.8620   75.1883   16.1252 N.ar    1  UNL1       -0.2264
     25 N          72.3028   81.7962    4.5205 N.2     1  UNL1       -0.0957
     26 C          71.4054   81.1607    5.5407 C.2     1  UNL1        0.3452
     27 H          72.1146   81.6830    3.5608 H       1  UNL1        0.3635
     28 N          70.2214   80.3529    5.0987 N.3     1  UNL1       -0.1293
     29 O          70.2587   78.8561    5.1890 O.3     1  UNL1       -0.2093
     30 H          69.4197   80.8051    4.7493 H       1  UNL1        0.3483
     31 H          71.1135   78.5753    5.5514 H       1  UNL1        0.2712
@<TRIPOS>BOND
     1    25    26    2
     2    26    28    1
     3    28    29    1
     4    26     1    1
     5     1     2    2
     6     2     3    1
     7     3     4    2
     8     4     5    1
     9     5     6    2
    10     6    10    1
    11    10    11   ar
    12    11    12   ar
    13    12    13   ar
    14    13    14   ar
    15    14    16    1
    16    16    17   ar
    17    17    18   ar
    18    18    19   ar
    19    19    20   ar
    20    20    21   ar
    21    21    22   ar
    22    22    23   ar
    23    23    24   ar
    24    14    15   ar
    25     6     7    1
    26     7     8    2
    27     8     9    1
    28     9     1    1
    29     8     4    1
    30    15    10   ar
    31    24    16   ar
    32    23    18   ar
    33    25    27    1
    34    28    30    1
    35    29    31    1
@<TRIPOS>MOLECULE
*****
 31 35 0 0 0
SMALL
GASTEIGER

@<TRIPOS>ATOM
      1 C          72.1260   81.7176    6.9921 C.2     1  UNL1        0.0724
      2 C          72.0381   82.9635    7.8226 C.2     1  UNL1        0.0077
      3 C          72.0567   82.8699    9.3196 C.2     1  UNL1        0.0501
      4 C          72.1632   81.5303    9.9860 C.2     1  UNL1        0.2321
      5 N          72.2048   81.1284   11.4305 N.2     1  UNL1       -0.0308
      6 C          72.3183   79.6340   11.4928 C.2     1  UNL1        0.3752
      7 N          72.3470   79.1123   10.0867 N.2     1  UNL1       -0.0347
      8 C          72.2511   80.2844    9.1555 C.2     1  UNL1        0.2180
      9 C          72.2325   80.3780    7.6585 C.3     1  UNL1        0.1118
     10 C          72.3906   78.8065   12.7419 C.ar    1  UNL1        0.0884
     11 C          72.7671   79.4469   14.0450 C.ar    1  UNL1        0.0077
     12 C          72.8393   78.6195   15.2940 C.ar    1  UNL1        0.0003
     13 C          72.5351   77.1517   15.2400 C.ar    1  UNL1        0.0016
     14 C          72.1587   76.5113   13.9368 C.ar    1  UNL1        0.0194
     15 C          72.0864   77.3387   12.6878 C.ar    1  UNL1        0.0092
     16 C          71.8544   75.0434   13.8828 C.ar    1  UNL1        0.1004
     17 C          72.0250   74.0657   15.0075 C.ar    1  UNL1        0.1006
     18 N          71.6022   72.7136   14.5143 N.ar    1  UNL1       -0.2875
     19 C          71.5546   71.3713   15.1822 C.ar    1  UNL1        0.0815
     20 C          71.0753   70.1712   14.4207 C.ar    1  UNL1        0.0191
     21 C          70.6435   70.3134   12.9913 C.ar    1  UNL1        0.0046
     22 C          70.6910   71.6556   12.3233 C.ar    1  UNL1        0.0374
     23 C          71.1704   72.8557   13.0849 C.ar    1  UNL1        0.1478
     24 N          71.3263   74.2956   12.6946 N.ar    1  UNL1       -0.2264
     25 N          70.9855   81.1879    4.7186 N.2     1  UNL1       -0.0957
     26 C          72.1073   81.8112    5.4951 C.2     1  UNL1        0.3452
     27 H          70.9733   81.2494    3.7361 H       1  UNL1        0.3635
     28 N          73.2105   82.5280    4.7747 N.3     1  UNL1       -0.1293
     29 O          72.8972   83.7195    3.9190 O.3     1  UNL1       -0.2093
     30 H          74.1402   82.2166    4.8635 H       1  UNL1        0.3483
     31 H          71.9428   83.8910    3.9405 H       1  UNL1        0.2712
@<TRIPOS>BOND
     1    25    26    2
     2    26    28    1
     3    28    29    1
     4    26     1    1
     5     1     2    2
     6     2     3    1
     7     3     4    2
     8     4     5    1
     9     5     6    2
    10     6    10    1
    11    10    11   ar
    12    11    12   ar
    13    12    13   ar
    14    13    14   ar
    15    14    16    1
    16    16    17   ar
    17    17    18   ar
    18    18    19   ar
    19    19    20   ar
    20    20    21   ar
    21    21    22   ar
    22    22    23   ar
    23    23    24   ar
    24    14    15   ar
    25     6     7    1
    26     7     8    2
    27     8     9    1
    28     9     1    1
    29     8     4    1
    30    15    10   ar
    31    24    16   ar
    32    23    18   ar
    33    25    27    1
    34    28    30    1
    35    29    31    1
