@<TRIPOS>MOLECULE
*****
 30 34 0 0 0
SMALL
GASTEIGER

@<TRIPOS>ATOM
      1 C          63.9833   84.9119   14.5237 C.3     1  UNL1        0.2253
      2 C          65.4150   84.5000   14.3485 C.3     1  UNL1        0.0558
      3 C          63.6158   85.9206   15.5713 C.ar    1  UNL1        0.2034
      4 N          63.1719   85.6160   16.9713 N.ar    1  UNL1       -0.1278
      5 N          62.9095   86.9181   17.6681 N.ar    1  UNL1       -0.1271
      6 C          63.1913   88.0276   16.6987 C.ar    1  UNL1        0.1865
      7 C          63.1067   89.5195   16.8285 C.ar    1  UNL1        0.0422
      8 C          63.4587   90.3951   15.6625 C.ar    1  UNL1        0.0241
      9 C          63.8952   89.7785   14.3666 C.ar    1  UNL1        0.1015
     10 N          63.9797   88.2865   14.2368 N.ar    1  UNL1       -0.1625
     11 N          63.6278   87.4111   15.4028 N.ar    1  UNL1       -0.1916
     12 C          64.2472   90.6540   13.2005 C.ar    1  UNL1        0.0194
     13 C          65.3813   91.6295   13.3106 C.ar    1  UNL1        0.0016
     14 C          65.7333   92.5050   12.1445 C.ar    1  UNL1        0.0000
     15 C          64.9511   92.4049   10.8684 C.ar    1  UNL1        0.0000
     16 C          63.8170   91.4295   10.7585 C.ar    1  UNL1        0.0000
     17 C          63.4650   90.5539   11.9246 C.ar    1  UNL1        0.0016
     18 O          62.9190   84.3151   13.6513 O.3     1  UNL1       -0.4714
     19 C          61.1799   87.2768    9.4735 C.ar    1  UNL1        0.1402
     20 C          60.9777   87.3526   10.9579 C.ar    1  UNL1        0.0371
     21 C          61.6248   86.3401   11.8557 C.ar    1  UNL1        0.0076
     22 C          62.4742   85.2518   11.2691 C.ar    1  UNL1        0.0519
     23 C          63.1213   84.2393   12.1669 C.ar    1  UNL1        0.1419
     24 C          63.9707   83.1510   11.5804 C.ar    1  UNL1        0.0576
     25 C          64.1730   83.0751   10.0960 C.ar    1  UNL1        0.1019
     26 N          63.5259   84.0876    9.1982 N.ar    1  UNL1       -0.2435
     27 C          62.6764   85.1760    9.7848 C.ar    1  UNL1        0.0872
     28 C          62.0293   86.1885    8.8870 C.ar    1  UNL1        0.0561
     29 C          59.3725   87.8928    7.7118 C.3     1  UNL1        0.2525
     30 O          60.5328   88.2893    8.5757 O.3     1  UNL1       -0.4714
@<TRIPOS>BOND
     1    29    30    1
     2    30    19    1
     3    19    20   ar
     4    20    21   ar
     5    21    22   ar
     6    22    23   ar
     7    23    18    1
     8    18     1    1
     9     1     2    1
    10     1     3    1
    11     3     4   ar
    12     4     5   ar
    13     5     6   ar
    14     6     7   ar
    15     7     8   ar
    16     8     9   ar
    17     9    12    1
    18    12    13   ar
    19    13    14   ar
    20    14    15   ar
    21    15    16   ar
    22    16    17   ar
    23     9    10   ar
    24    10    11   ar
    25    23    24   ar
    26    24    25   ar
    27    25    26   ar
    28    26    27   ar
    29    27    28   ar
    30    28    19   ar
    31    27    22   ar
    32    11     3   ar
    33    11     6   ar
    34    17    12   ar
@<TRIPOS>MOLECULE
*****
 30 34 0 0 0
SMALL
GASTEIGER

@<TRIPOS>ATOM
      1 C          61.9565   89.6560   11.8833 C.3     1  UNL1        0.2253
      2 C          61.7803   90.5660   10.7038 C.3     1  UNL1        0.0558
      3 C          62.7807   90.0989   13.0556 C.ar    1  UNL1        0.2034
      4 N          62.5287   89.7501   14.4926 N.ar    1  UNL1       -0.1278
      5 N          63.5938   90.4039   15.3220 N.ar    1  UNL1       -0.1271
      6 C          64.5042   91.1569   14.3976 C.ar    1  UNL1        0.1865
      7 C          65.7257   91.9897   14.6504 C.ar    1  UNL1        0.0422
      8 C          66.4449   92.6342   13.5025 C.ar    1  UNL1        0.0241
      9 C          65.9423   92.4456   12.1018 C.ar    1  UNL1        0.1015
     10 N          64.7207   91.6127   11.8491 N.ar    1  UNL1       -0.1625
     11 N          64.0016   90.9683   12.9970 N.ar    1  UNL1       -0.1916
     12 C          66.6614   93.0900   10.9539 C.ar    1  UNL1        0.0194
     13 C          67.6823   92.3126   10.1771 C.ar    1  UNL1        0.0016
     14 C          68.4014   92.9570    9.0292 C.ar    1  UNL1        0.0000
     15 C          68.0995   94.3788    8.6581 C.ar    1  UNL1        0.0000
     16 C          67.0786   95.1560    9.4349 C.ar    1  UNL1        0.0000
     17 C          66.3595   94.5117   10.5829 C.ar    1  UNL1        0.0016
     18 O          61.3085   88.3032   11.8902 O.3     1  UNL1       -0.4714
     19 C          63.8298   83.5217   12.0632 C.ar    1  UNL1        0.1402
     20 C          63.4553   84.5381   13.1007 C.ar    1  UNL1        0.0371
     21 C          62.7397   85.7932   12.6972 C.ar    1  UNL1        0.0076
     22 C          62.3986   86.0318   11.2562 C.ar    1  UNL1        0.0519
     23 C          61.6831   87.2868   10.8527 C.ar    1  UNL1        0.1419
     24 C          61.3420   87.5255    9.4116 C.ar    1  UNL1        0.0576
     25 C          61.7166   86.5091    8.3740 C.ar    1  UNL1        0.1019
     26 N          62.4322   85.2540    8.7775 N.ar    1  UNL1       -0.2435
     27 C          62.7732   85.0154   10.2186 C.ar    1  UNL1        0.0872
     28 C          63.4888   83.7604   10.6221 C.ar    1  UNL1        0.0561
     29 C          63.8796   81.2862   13.3860 C.3     1  UNL1        0.2525
     30 O          64.5454   82.2667   12.4667 O.3     1  UNL1       -0.4714
@<TRIPOS>BOND
     1    29    30    1
     2    30    19    1
     3    19    20   ar
     4    20    21   ar
     5    21    22   ar
     6    22    23   ar
     7    23    18    1
     8    18     1    1
     9     1     2    1
    10     1     3    1
    11     3     4   ar
    12     4     5   ar
    13     5     6   ar
    14     6     7   ar
    15     7     8   ar
    16     8     9   ar
    17     9    12    1
    18    12    13   ar
    19    13    14   ar
    20    14    15   ar
    21    15    16   ar
    22    16    17   ar
    23     9    10   ar
    24    10    11   ar
    25    23    24   ar
    26    24    25   ar
    27    25    26   ar
    28    26    27   ar
    29    27    28   ar
    30    28    19   ar
    31    27    22   ar
    32    11     3   ar
    33    11     6   ar
    34    17    12   ar
@<TRIPOS>MOLECULE
*****
 30 34 0 0 0
SMALL
GASTEIGER

@<TRIPOS>ATOM
      1 C          62.6043   85.0124    9.8024 C.3     1  UNL1        0.2253
      2 C          63.1376   85.3412    8.4394 C.3     1  UNL1        0.0558
      3 C          63.2848   83.9734   10.6434 C.ar    1  UNL1        0.2034
      4 N          63.7783   82.6391   10.1680 N.ar    1  UNL1       -0.1278
      5 N          64.3897   81.9272   11.3382 N.ar    1  UNL1       -0.1271
      6 C          64.2740   82.8215   12.5369 C.ar    1  UNL1        0.1865
      7 C          64.7022   82.6478   13.9638 C.ar    1  UNL1        0.0422
      8 C          64.4475   83.7386   14.9615 C.ar    1  UNL1        0.0241
      9 C          63.7646   85.0032   14.5321 C.ar    1  UNL1        0.1015
     10 N          63.3364   85.1770   13.1050 N.ar    1  UNL1       -0.1625
     11 N          63.5911   84.0861   12.1074 N.ar    1  UNL1       -0.1916
     12 C          63.5100   86.0941   15.5297 C.ar    1  UNL1        0.0194
     13 C          62.9018   85.7658   16.8610 C.ar    1  UNL1        0.0016
     14 C          62.6471   86.8566   17.8586 C.ar    1  UNL1        0.0000
     15 C          63.0006   88.2757   17.5248 C.ar    1  UNL1        0.0000
     16 C          63.6087   88.6039   16.1936 C.ar    1  UNL1        0.0000
     17 C          63.8634   87.5131   15.1959 C.ar    1  UNL1        0.0016
     18 O          61.3907   85.7228   10.3243 O.3     1  UNL1       -0.4714
     19 C          63.0445   90.6444   11.8386 C.ar    1  UNL1        0.1402
     20 C          63.3573   89.2532   12.3040 C.ar    1  UNL1        0.0371
     21 C          62.7018   88.0764   11.6441 C.ar    1  UNL1        0.0076
     22 C          61.7334   88.2908   10.5188 C.ar    1  UNL1        0.0519
     23 C          61.0779   87.1140    9.8589 C.ar    1  UNL1        0.1419
     24 C          60.1096   87.3284    8.7336 C.ar    1  UNL1        0.0576
     25 C          59.7967   88.7197    8.2682 C.ar    1  UNL1        0.1019
     26 N          60.4523   89.8965    8.9281 N.ar    1  UNL1       -0.2435
     27 C          61.4206   89.6820   10.0534 C.ar    1  UNL1        0.0872
     28 C          62.0762   90.8588   10.7133 C.ar    1  UNL1        0.0561
     29 C          65.0202   91.6536   13.1906 C.3     1  UNL1        0.2525
     30 O          63.7001   91.8211   12.4984 O.3     1  UNL1       -0.4714
@<TRIPOS>BOND
     1    29    30    1
     2    30    19    1
     3    19    20   ar
     4    20    21   ar
     5    21    22   ar
     6    22    23   ar
     7    23    18    1
     8    18     1    1
     9     1     2    1
    10     1     3    1
    11     3     4   ar
    12     4     5   ar
    13     5     6   ar
    14     6     7   ar
    15     7     8   ar
    16     8     9   ar
    17     9    12    1
    18    12    13   ar
    19    13    14   ar
    20    14    15   ar
    21    15    16   ar
    22    16    17   ar
    23     9    10   ar
    24    10    11   ar
    25    23    24   ar
    26    24    25   ar
    27    25    26   ar
    28    26    27   ar
    29    27    28   ar
    30    28    19   ar
    31    27    22   ar
    32    11     3   ar
    33    11     6   ar
    34    17    12   ar
@<TRIPOS>MOLECULE
*****
 30 34 0 0 0
SMALL
GASTEIGER

@<TRIPOS>ATOM
      1 C          64.1233   87.0105   14.5078 C.3     1  UNL1        0.2253
      2 C          64.0308   86.8166   15.9924 C.3     1  UNL1        0.0558
      3 C          64.0683   88.3923   13.9271 C.ar    1  UNL1        0.2034
      4 N          64.6840   89.6239   14.5222 N.ar    1  UNL1       -0.1278
      5 N          64.3842   90.7780   13.6122 N.ar    1  UNL1       -0.1271
      6 C          63.5833   90.2597   12.4546 C.ar    1  UNL1        0.1865
      7 C          63.0065   90.9399   11.2486 C.ar    1  UNL1        0.0422
      8 C          62.2344   90.1456   10.2370 C.ar    1  UNL1        0.0241
      9 C          62.0392   88.6712   10.4317 C.ar    1  UNL1        0.1015
     10 N          62.6160   87.9910   11.6378 N.ar    1  UNL1       -0.1625
     11 N          63.3880   88.7853   12.6493 N.ar    1  UNL1       -0.1916
     12 C          61.2672   87.8769    9.4202 C.ar    1  UNL1        0.0194
     13 C          61.7713   86.5355    8.9767 C.ar    1  UNL1        0.0016
     14 C          60.9993   85.7412    7.9652 C.ar    1  UNL1        0.0000
     15 C          59.7232   86.2883    7.3973 C.ar    1  UNL1        0.0000
     16 C          59.2192   87.6296    7.8408 C.ar    1  UNL1        0.0000
     17 C          59.9912   88.4239    8.8523 C.ar    1  UNL1        0.0016
     18 O          64.2708   85.8224   13.6041 O.3     1  UNL1       -0.4714
     19 C          63.2457   81.3413   10.7547 C.ar    1  UNL1        0.1402
     20 C          64.0214   82.5949   10.4782 C.ar    1  UNL1        0.0371
     21 C          64.1046   83.6708   11.5201 C.ar    1  UNL1        0.0076
     22 C          63.4119   83.4929   12.8387 C.ar    1  UNL1        0.0519
     23 C          63.4951   84.5688   13.8806 C.ar    1  UNL1        0.1419
     24 C          62.8025   84.3909   15.1992 C.ar    1  UNL1        0.0576
     25 C          62.0267   83.1372   15.4758 C.ar    1  UNL1        0.1019
     26 N          61.9435   82.0614   14.4339 N.ar    1  UNL1       -0.2435
     27 C          62.6362   82.2393   13.1153 C.ar    1  UNL1        0.0872
     28 C          62.5531   81.1635   12.0733 C.ar    1  UNL1        0.0561
     29 C          62.7556   78.8750   10.1012 C.3     1  UNL1        0.2525
     30 O          63.1626   80.2655    9.7128 O.3     1  UNL1       -0.4714
@<TRIPOS>BOND
     1    29    30    1
     2    30    19    1
     3    19    20   ar
     4    20    21   ar
     5    21    22   ar
     6    22    23   ar
     7    23    18    1
     8    18     1    1
     9     1     2    1
    10     1     3    1
    11     3     4   ar
    12     4     5   ar
    13     5     6   ar
    14     6     7   ar
    15     7     8   ar
    16     8     9   ar
    17     9    12    1
    18    12    13   ar
    19    13    14   ar
    20    14    15   ar
    21    15    16   ar
    22    16    17   ar
    23     9    10   ar
    24    10    11   ar
    25    23    24   ar
    26    24    25   ar
    27    25    26   ar
    28    26    27   ar
    29    27    28   ar
    30    28    19   ar
    31    27    22   ar
    32    11     3   ar
    33    11     6   ar
    34    17    12   ar
@<TRIPOS>MOLECULE
*****
 30 34 0 0 0
SMALL
GASTEIGER

@<TRIPOS>ATOM
      1 C          62.7251   84.4947   10.6196 C.3     1  UNL1        0.2253
      2 C          63.4911   84.2787    9.3480 C.3     1  UNL1        0.0558
      3 C          63.2085   83.8806   11.8998 C.ar    1  UNL1        0.2034
      4 N          63.4264   82.4176   12.1488 N.ar    1  UNL1       -0.1278
      5 N          63.9115   82.2545   13.5588 N.ar    1  UNL1       -0.1271
      6 C          63.9934   83.6169   14.1813 C.ar    1  UNL1        0.1865
      7 C          64.4075   84.0720   15.5492 C.ar    1  UNL1        0.0422
      8 C          64.3872   85.5323   15.8919 C.ar    1  UNL1        0.0241
      9 C          63.9527   86.5372   14.8666 C.ar    1  UNL1        0.1015
     10 N          63.5386   86.0820   13.4986 N.ar    1  UNL1       -0.1625
     11 N          63.5590   84.6218   13.1560 N.ar    1  UNL1       -0.1916
     12 C          63.9324   87.9974   15.2092 C.ar    1  UNL1        0.0194
     13 C          64.5830   88.9917   14.2937 C.ar    1  UNL1        0.0016
     14 C          64.5626   90.4519   14.6364 C.ar    1  UNL1        0.0000
     15 C          63.8916   90.9178   15.8945 C.ar    1  UNL1        0.0000
     16 C          63.2411   89.9235   16.8099 C.ar    1  UNL1        0.0000
     17 C          63.2614   88.4633   16.4673 C.ar    1  UNL1        0.0016
     18 O          61.4758   85.3248   10.6107 O.3     1  UNL1       -0.4714
     19 C          59.2092   88.8508    7.1932 C.ar    1  UNL1        0.1402
     20 C          59.1200   87.3632    7.3634 C.ar    1  UNL1        0.0371
     21 C          59.9053   86.6837    8.4458 C.ar    1  UNL1        0.0076
     22 C          60.7797   87.4919    9.3581 C.ar    1  UNL1        0.0519
     23 C          61.5649   86.8124   10.4405 C.ar    1  UNL1        0.1419
     24 C          62.4393   87.6206   11.3528 C.ar    1  UNL1        0.0576
     25 C          62.5285   89.1083   11.1826 C.ar    1  UNL1        0.1019
     26 N          61.7433   89.7877   10.1002 N.ar    1  UNL1       -0.2435
     27 C          60.8688   88.9795    9.1879 C.ar    1  UNL1        0.0872
     28 C          60.0836   89.6590    8.1054 C.ar    1  UNL1        0.0561
     29 C          58.8363   90.8880    5.6245 C.3     1  UNL1        0.2525
     30 O          58.4239   89.5303    6.1107 O.3     1  UNL1       -0.4714
@<TRIPOS>BOND
     1    29    30    1
     2    30    19    1
     3    19    20   ar
     4    20    21   ar
     5    21    22   ar
     6    22    23   ar
     7    23    18    1
     8    18     1    1
     9     1     2    1
    10     1     3    1
    11     3     4   ar
    12     4     5   ar
    13     5     6   ar
    14     6     7   ar
    15     7     8   ar
    16     8     9   ar
    17     9    12    1
    18    12    13   ar
    19    13    14   ar
    20    14    15   ar
    21    15    16   ar
    22    16    17   ar
    23     9    10   ar
    24    10    11   ar
    25    23    24   ar
    26    24    25   ar
    27    25    26   ar
    28    26    27   ar
    29    27    28   ar
    30    28    19   ar
    31    27    22   ar
    32    11     3   ar
    33    11     6   ar
    34    17    12   ar
@<TRIPOS>MOLECULE
*****
 30 34 0 0 0
SMALL
GASTEIGER

@<TRIPOS>ATOM
      1 C          63.6892   83.5253   11.3243 C.3     1  UNL1        0.2253
      2 C          63.9623   82.4028   10.3675 C.3     1  UNL1        0.0558
      3 C          63.3632   83.2265   12.7576 C.ar    1  UNL1        0.2034
      4 N          63.0228   81.8791   13.3219 N.ar    1  UNL1       -0.1278
      5 N          62.7695   82.0425   14.7913 N.ar    1  UNL1       -0.1271
      6 C          62.9533   83.4910   15.1352 C.ar    1  UNL1        0.1865
      7 C          62.8340   84.2381   16.4303 C.ar    1  UNL1        0.0422
      8 C          63.0817   85.7170   16.4686 C.ar    1  UNL1        0.0241
      9 C          63.4486   86.4488   15.2117 C.ar    1  UNL1        0.1015
     10 N          63.5679   85.7016   13.9165 N.ar    1  UNL1       -0.1625
     11 N          63.3203   84.2227   13.8782 N.ar    1  UNL1       -0.1916
     12 C          63.6962   87.9277   15.2500 C.ar    1  UNL1        0.0194
     13 C          63.2639   88.7299   16.4415 C.ar    1  UNL1        0.0016
     14 C          63.5116   90.2088   16.4798 C.ar    1  UNL1        0.0000
     15 C          64.1915   90.8855   15.3265 C.ar    1  UNL1        0.0000
     16 C          64.6237   90.0833   14.1351 C.ar    1  UNL1        0.0000
     17 C          64.3761   88.6044   14.0968 C.ar    1  UNL1        0.0016
     18 O          63.7423   84.9466   10.8478 O.3     1  UNL1       -0.4714
     19 C          60.4439   89.1853   10.2123 C.ar    1  UNL1        0.1402
     20 C          61.3515   88.7301   11.3163 C.ar    1  UNL1        0.0371
     21 C          62.1485   87.4689   11.1601 C.ar    1  UNL1        0.0076
     22 C          62.0378   86.6630    9.8999 C.ar    1  UNL1        0.0519
     23 C          62.8348   85.4019    9.7437 C.ar    1  UNL1        0.1419
     24 C          62.7241   84.5960    8.4835 C.ar    1  UNL1        0.0576
     25 C          61.8165   85.0512    7.3793 C.ar    1  UNL1        0.1019
     26 N          61.0195   86.3124    7.5355 N.ar    1  UNL1       -0.2435
     27 C          61.1302   87.1183    8.7958 C.ar    1  UNL1        0.0872
     28 C          60.3333   88.3794    8.9520 C.ar    1  UNL1        0.0561
     29 C          59.1016   90.8274   11.7128 C.3     1  UNL1        0.2525
     30 O          59.6470   90.4465   10.3684 O.3     1  UNL1       -0.4714
@<TRIPOS>BOND
     1    29    30    1
     2    30    19    1
     3    19    20   ar
     4    20    21   ar
     5    21    22   ar
     6    22    23   ar
     7    23    18    1
     8    18     1    1
     9     1     2    1
    10     1     3    1
    11     3     4   ar
    12     4     5   ar
    13     5     6   ar
    14     6     7   ar
    15     7     8   ar
    16     8     9   ar
    17     9    12    1
    18    12    13   ar
    19    13    14   ar
    20    14    15   ar
    21    15    16   ar
    22    16    17   ar
    23     9    10   ar
    24    10    11   ar
    25    23    24   ar
    26    24    25   ar
    27    25    26   ar
    28    26    27   ar
    29    27    28   ar
    30    28    19   ar
    31    27    22   ar
    32    11     3   ar
    33    11     6   ar
    34    17    12   ar
