@<TRIPOS>MOLECULE
*****
 37 43 0 0 0
SMALL
GASTEIGER

@<TRIPOS>ATOM
      1 C          61.5816   92.9374    2.4680 C.2     1  UNL1       -0.0378
      2 C          62.3629   91.9091    3.2311 C.2     1  UNL1       -0.0080
      3 C          61.6882   91.0882    4.2899 C.2     1  UNL1        0.0022
      4 C          60.2323   91.2957    4.5855 C.2     1  UNL1        0.0350
      5 C          59.3038   90.6411    5.5650 C.2     1  UNL1        0.1040
      6 N          57.9487   91.2648    5.4072 N.2     1  UNL1       -0.1483
      7 N          58.0399   92.3049    4.3302 N.2     1  UNL1       -0.1520
      8 C          59.4511   92.3239    3.8224 C.2     1  UNL1        0.0860
      9 C          60.1258   93.1448    2.7636 C.3     1  UNL1        0.0697
     10 O          64.1122   95.8870   -1.1336 O.2     1  UNL1       -0.2744
     11 C          62.8625   95.0576   -1.1511 C.2     1  UNL1        0.2293
     12 N          61.9521   94.8595   -2.3267 N.am    1  UNL1       -0.2839
     13 C          60.8307   93.9601   -1.8983 C.ar    1  UNL1        0.0467
     14 C          59.6399   93.4207   -2.6337 C.ar    1  UNL1        0.0144
     15 C          58.6663   92.5235   -1.9287 C.ar    1  UNL1        0.0013
     16 C          58.8835   92.1658   -0.4882 C.ar    1  UNL1       -0.0002
     17 C          60.0744   92.7052    0.2472 C.ar    1  UNL1       -0.0026
     18 C          61.0480   93.6024   -0.4579 C.ar    1  UNL1       -0.0008
     19 C          62.3036   94.2807    0.0039 C.3     1  UNL1        0.0927
     20 C          63.3777   94.6576    0.9807 C.3     1  UNL1        0.0179
     21 C          62.2564   93.7583    1.4092 C.3     1  UNL1        0.0315
     22 H          62.0700   95.2510   -3.2223 H       1  UNL1        0.1549
     23 C          59.6667   89.5537    6.5324 C.2     1  UNL1        0.0209
     24 C          60.2202   89.9043    7.8817 C.2     1  UNL1        0.0016
     25 C          60.5831   88.8168    8.8491 C.ar    1  UNL1        0.0000
     26 C          60.0761   87.4216    8.6340 C.ar    1  UNL1       -0.0003
     27 C          60.4390   86.3342    9.6014 C.ar    1  UNL1       -0.0029
     28 C          61.3088   86.6420   10.7840 C.ar    1  UNL1       -0.0061
     29 C          61.8158   88.0373   10.9993 C.ar    1  UNL1       -0.0029
     30 C          61.4530   89.1247   10.0318 C.ar    1  UNL1       -0.0003
     31 C          61.6716   85.5546   11.7515 C.3     1  UNL1        0.0993
     32 N          62.7319   84.5558   11.3938 N.3     1  UNL1       -0.2646
     33 C          63.1787   84.4139    9.9690 C.3     1  UNL1        0.1049
     34 C          64.2391   83.4150    9.6114 C.3     1  UNL1        0.1595
     35 O          64.8527   82.5579   10.6787 O.3     1  UNL1       -0.3508
     36 C          64.4058   82.6999   12.1036 C.3     1  UNL1        0.1595
     37 C          63.3455   83.6988   12.4611 C.3     1  UNL1        0.1049
@<TRIPOS>BOND
     1    10    11    2
     2    11    12   am
     3    12    13    1
     4    13    14   ar
     5    14    15   ar
     6    15    16   ar
     7    16    17   ar
     8    17    18   ar
     9    18    19    1
    10    19    20    1
    11    20    21    1
    12    21     1    1
    13     1     2    2
    14     2     3    1
    15     3     4    2
    16     4     5    1
    17     5    23    1
    18    23    24    2
    19    24    25    1
    20    25    26   ar
    21    26    27   ar
    22    27    28   ar
    23    28    31    1
    24    31    32    1
    25    32    33    1
    26    33    34    1
    27    34    35    1
    28    35    36    1
    29    36    37    1
    30    28    29   ar
    31    29    30   ar
    32     5     6    2
    33     6     7    1
    34     7     8    2
    35     8     9    1
    36    19    11    1
    37     9     1    1
    38    18    13   ar
    39    21    19    1
    40     8     4    1
    41    30    25   ar
    42    37    32    1
    43    12    22    1
@<TRIPOS>MOLECULE
*****
 37 43 0 0 0
SMALL
GASTEIGER

@<TRIPOS>ATOM
      1 C          62.1456   92.8099    1.0978 C.2     1  UNL1       -0.0378
      2 C          62.9715   91.9650    2.0220 C.2     1  UNL1       -0.0080
      3 C          62.3693   91.4282    3.2867 C.2     1  UNL1        0.0022
      4 C          60.9413   91.7365    3.6270 C.2     1  UNL1        0.0350
      5 C          60.0817   91.3500    4.7939 C.2     1  UNL1        0.1040
      6 N          58.7246   91.9560    4.5909 N.2     1  UNL1       -0.1483
      7 N          58.7456   92.7171    3.2985 N.2     1  UNL1       -0.1520
      8 C          60.1155   92.5815    2.7028 C.2     1  UNL1        0.0860
      9 C          60.7178   93.1182    1.4382 C.3     1  UNL1        0.0697
     10 O          64.1584   94.5694   -3.4769 O.2     1  UNL1       -0.2744
     11 C          64.3610   94.9328   -2.0358 C.2     1  UNL1        0.2293
     12 N          65.2833   95.9952   -1.5156 N.am    1  UNL1       -0.2839
     13 C          65.1693   96.0165   -0.0201 C.ar    1  UNL1        0.0467
     14 C          65.8412   96.8557    1.0259 C.ar    1  UNL1        0.0144
     15 C          65.5203   96.6457    2.4760 C.ar    1  UNL1        0.0013
     16 C          64.5274   95.5965    2.8801 C.ar    1  UNL1       -0.0002
     17 C          63.8555   94.7572    1.8341 C.ar    1  UNL1       -0.0026
     18 C          64.1764   94.9672    0.3840 C.ar    1  UNL1       -0.0008
     19 C          63.6769   94.2975   -0.8617 C.3     1  UNL1        0.0927
     20 C          62.8620   93.3254   -1.6623 C.3     1  UNL1        0.0179
     21 C          62.7479   93.3467   -0.1669 C.3     1  UNL1        0.0315
     22 H          65.8620   96.5764   -2.0602 H       1  UNL1        0.1549
     23 C          60.5049   90.5056    5.9593 C.2     1  UNL1        0.0209
     24 C          59.5374   89.5393    6.5758 C.2     1  UNL1        0.0016
     25 C          59.9605   88.6949    7.7412 C.ar    1  UNL1        0.0000
     26 C          59.7515   87.2100    7.7065 C.ar    1  UNL1       -0.0003
     27 C          60.1747   86.3656    8.8719 C.ar    1  UNL1       -0.0029
     28 C          60.8068   87.0062   10.0719 C.ar    1  UNL1       -0.0061
     29 C          61.0158   88.4912   10.1066 C.ar    1  UNL1       -0.0029
     30 C          60.5927   89.3356    8.9412 C.ar    1  UNL1       -0.0003
     31 C          61.2299   86.1618   11.2372 C.3     1  UNL1        0.0993
     32 N          62.3597   85.1868   11.0859 N.3     1  UNL1       -0.2646
     33 C          62.8106   84.7679    9.7180 C.3     1  UNL1        0.1049
     34 C          63.9405   83.7928    9.5667 C.3     1  UNL1        0.1595
     35 O          64.6193   83.2367   10.7832 O.3     1  UNL1       -0.3508
     36 C          64.1682   83.6557   12.1512 C.3     1  UNL1        0.1595
     37 C          63.0385   84.6307   12.3025 C.3     1  UNL1        0.1049
@<TRIPOS>BOND
     1    10    11    2
     2    11    12   am
     3    12    13    1
     4    13    14   ar
     5    14    15   ar
     6    15    16   ar
     7    16    17   ar
     8    17    18   ar
     9    18    19    1
    10    19    20    1
    11    20    21    1
    12    21     1    1
    13     1     2    2
    14     2     3    1
    15     3     4    2
    16     4     5    1
    17     5    23    1
    18    23    24    2
    19    24    25    1
    20    25    26   ar
    21    26    27   ar
    22    27    28   ar
    23    28    31    1
    24    31    32    1
    25    32    33    1
    26    33    34    1
    27    34    35    1
    28    35    36    1
    29    36    37    1
    30    28    29   ar
    31    29    30   ar
    32     5     6    2
    33     6     7    1
    34     7     8    2
    35     8     9    1
    36    19    11    1
    37     9     1    1
    38    18    13   ar
    39    21    19    1
    40     8     4    1
    41    30    25   ar
    42    37    32    1
    43    12    22    1
@<TRIPOS>MOLECULE
*****
 37 43 0 0 0
SMALL
GASTEIGER

@<TRIPOS>ATOM
      1 C          62.0162   85.3861   10.8023 C.2     1  UNL1       -0.0378
      2 C          62.3642   85.8152    9.4077 C.2     1  UNL1       -0.0080
      3 C          61.8377   87.1123    8.8687 C.2     1  UNL1        0.0022
      4 C          60.9633   87.9802    9.7244 C.2     1  UNL1        0.0350
      5 C          60.3016   89.3015    9.4673 C.2     1  UNL1        0.1040
      6 N          59.5446   89.6892   10.7030 N.2     1  UNL1       -0.1483
      7 N          59.7386   88.6072   11.7237 N.2     1  UNL1       -0.1520
      8 C          60.6153   87.5511   11.1189 C.2     1  UNL1        0.0860
      9 C          61.1418   86.2540   11.6579 C.3     1  UNL1        0.0697
     10 O          63.7808   80.7054   12.5495 O.2     1  UNL1       -0.2744
     11 C          63.9305   82.1221   13.0193 C.2     1  UNL1        0.2293
     12 N          64.7007   82.5747   14.2243 N.am    1  UNL1       -0.2839
     13 C          64.5825   84.0672   14.3163 C.ar    1  UNL1        0.0467
     14 C          65.1338   85.0590   15.2973 C.ar    1  UNL1        0.0144
     15 C          64.8418   86.5208   15.1300 C.ar    1  UNL1        0.0013
     16 C          63.9986   86.9907   13.9819 C.ar    1  UNL1       -0.0002
     17 C          63.4473   85.9988   13.0010 C.ar    1  UNL1       -0.0026
     18 C          63.7393   84.5370   13.1682 C.ar    1  UNL1       -0.0008
     19 C          63.3364   83.3349   12.3666 C.3     1  UNL1        0.0927
     20 C          62.6609   82.5966   11.2492 C.3     1  UNL1        0.0179
     21 C          62.5427   84.0890   11.3412 C.3     1  UNL1        0.0315
     22 H          65.1967   81.9940   14.8457 H       1  UNL1        0.1549
     23 C          60.3826   90.0959    8.1975 C.2     1  UNL1        0.0209
     24 C          59.4006   89.8448    7.0918 C.2     1  UNL1        0.0016
     25 C          59.4816   90.6392    5.8220 C.ar    1  UNL1        0.0000
     26 C          60.8072   90.8502    5.1525 C.ar    1  UNL1       -0.0003
     27 C          60.8882   91.6446    3.8827 C.ar    1  UNL1       -0.0029
     28 C          59.6435   92.2280    3.2824 C.ar    1  UNL1       -0.0061
     29 C          58.3178   92.0171    3.9518 C.ar    1  UNL1       -0.0029
     30 C          58.2368   91.2227    5.2216 C.ar    1  UNL1       -0.0003
     31 C          59.7245   93.0224    2.0125 C.3     1  UNL1        0.0993
     32 N          61.0182   93.6679    1.6130 N.3     1  UNL1       -0.2646
     33 C          62.1246   92.8358    1.0354 C.3     1  UNL1        0.1049
     34 C          63.4183   93.4814    0.6358 C.3     1  UNL1        0.1595
     35 O          63.6056   94.9590    0.8138 O.3     1  UNL1       -0.3508
     36 C          62.4991   95.7910    1.3914 C.3     1  UNL1        0.1595
     37 C          61.2055   95.1455    1.7910 C.3     1  UNL1        0.1049
@<TRIPOS>BOND
     1    10    11    2
     2    11    12   am
     3    12    13    1
     4    13    14   ar
     5    14    15   ar
     6    15    16   ar
     7    16    17   ar
     8    17    18   ar
     9    18    19    1
    10    19    20    1
    11    20    21    1
    12    21     1    1
    13     1     2    2
    14     2     3    1
    15     3     4    2
    16     4     5    1
    17     5    23    1
    18    23    24    2
    19    24    25    1
    20    25    26   ar
    21    26    27   ar
    22    27    28   ar
    23    28    31    1
    24    31    32    1
    25    32    33    1
    26    33    34    1
    27    34    35    1
    28    35    36    1
    29    36    37    1
    30    28    29   ar
    31    29    30   ar
    32     5     6    2
    33     6     7    1
    34     7     8    2
    35     8     9    1
    36    19    11    1
    37     9     1    1
    38    18    13   ar
    39    21    19    1
    40     8     4    1
    41    30    25   ar
    42    37    32    1
    43    12    22    1
@<TRIPOS>MOLECULE
*****
 37 43 0 0 0
SMALL
GASTEIGER

@<TRIPOS>ATOM
      1 C          62.0466   87.5487   11.1965 C.2     1  UNL1       -0.0378
      2 C          62.5176   88.7847   10.4889 C.2     1  UNL1       -0.0080
      3 C          61.7655   89.2996    9.2975 C.2     1  UNL1        0.0022
      4 C          60.5424   88.5784    8.8138 C.2     1  UNL1        0.0350
      5 C          59.6034   88.8471    7.6754 C.2     1  UNL1        0.1040
      6 N          58.5520   87.7772    7.6793 N.2     1  UNL1       -0.1483
      7 N          58.8413   86.8473    8.8203 N.2     1  UNL1       -0.1520
      8 C          60.0714   87.3425    9.5213 C.2     1  UNL1        0.0860
      9 C          60.8235   86.8277   10.7127 C.3     1  UNL1        0.0697
     10 O          64.6613   85.9087   15.5033 O.2     1  UNL1       -0.2744
     11 C          64.3728   85.3049   14.1608 C.2     1  UNL1        0.2293
     12 N          64.8118   83.9498   13.6908 N.am    1  UNL1       -0.2839
     13 C          64.3049   83.7575   12.2922 C.ar    1  UNL1        0.0467
     14 C          64.4312   82.6165   11.3268 C.ar    1  UNL1        0.0144
     15 C          63.8052   82.7117    9.9670 C.ar    1  UNL1        0.0013
     16 C          63.0529   83.9481    9.5726 C.ar    1  UNL1       -0.0002
     17 C          62.9266   85.0891   10.5380 C.ar    1  UNL1       -0.0026
     18 C          63.5526   84.9939   11.8978 C.ar    1  UNL1       -0.0008
     19 C          63.5946   85.9502   13.0527 C.3     1  UNL1        0.0927
     20 C          63.3056   87.2261   13.7864 C.3     1  UNL1        0.0179
     21 C          62.7988   87.0339   12.3878 C.3     1  UNL1        0.0315
     22 H          65.3399   83.3005   14.2092 H       1  UNL1        0.1549
     23 C          59.6989   89.9857    6.7036 C.2     1  UNL1        0.0209
     24 C          60.6387   89.8998    5.5377 C.2     1  UNL1        0.0016
     25 C          60.7342   91.0385    4.5659 C.ar    1  UNL1        0.0000
     26 C          59.5772   91.9776    4.3948 C.ar    1  UNL1       -0.0003
     27 C          59.6727   93.1162    3.4230 C.ar    1  UNL1       -0.0029
     28 C          60.9253   93.3157    2.6222 C.ar    1  UNL1       -0.0061
     29 C          62.0825   92.3766    2.7933 C.ar    1  UNL1       -0.0029
     30 C          61.9869   91.2380    3.7651 C.ar    1  UNL1       -0.0003
     31 C          61.0208   94.4544    1.6504 C.3     1  UNL1        0.0993
     32 N          62.2964   94.6934    0.8984 N.3     1  UNL1       -0.2646
     33 C          62.5216   94.0282   -0.4270 C.3     1  UNL1        0.1049
     34 C          63.7973   94.2672   -1.1791 C.3     1  UNL1        0.1595
     35 O          64.8478   95.1716   -0.6057 O.3     1  UNL1       -0.3508
     36 C          64.6225   95.8369    0.7197 C.3     1  UNL1        0.1595
     37 C          63.3469   95.5978    1.4717 C.3     1  UNL1        0.1049
@<TRIPOS>BOND
     1    10    11    2
     2    11    12   am
     3    12    13    1
     4    13    14   ar
     5    14    15   ar
     6    15    16   ar
     7    16    17   ar
     8    17    18   ar
     9    18    19    1
    10    19    20    1
    11    20    21    1
    12    21     1    1
    13     1     2    2
    14     2     3    1
    15     3     4    2
    16     4     5    1
    17     5    23    1
    18    23    24    2
    19    24    25    1
    20    25    26   ar
    21    26    27   ar
    22    27    28   ar
    23    28    31    1
    24    31    32    1
    25    32    33    1
    26    33    34    1
    27    34    35    1
    28    35    36    1
    29    36    37    1
    30    28    29   ar
    31    29    30   ar
    32     5     6    2
    33     6     7    1
    34     7     8    2
    35     8     9    1
    36    19    11    1
    37     9     1    1
    38    18    13   ar
    39    21    19    1
    40     8     4    1
    41    30    25   ar
    42    37    32    1
    43    12    22    1
@<TRIPOS>MOLECULE
*****
 37 43 0 0 0
SMALL
GASTEIGER

@<TRIPOS>ATOM
      1 C          63.0658   83.8704   14.7468 C.2     1  UNL1       -0.0378
      2 C          63.7199   84.8909   13.8631 C.2     1  UNL1       -0.0080
      3 C          63.8737   86.3056   14.3375 C.2     1  UNL1        0.0022
      4 C          63.3733   86.6997   15.6956 C.2     1  UNL1        0.0350
      5 C          63.3852   88.0083   16.4287 C.2     1  UNL1        0.1040
      6 N          62.7384   87.7966   17.7655 N.2     1  UNL1       -0.1483
      7 N          62.3269   86.3572   17.8584 N.2     1  UNL1       -0.1520
      8 C          62.7192   85.6793   16.5792 C.2     1  UNL1        0.0860
      9 C          62.5655   84.2646   16.1048 C.3     1  UNL1        0.0697
     10 O          62.4951   78.8143   13.2685 O.2     1  UNL1       -0.2744
     11 C          62.7475   80.0975   12.5338 C.2     1  UNL1        0.2293
     12 N          62.9122   80.2464   11.0504 N.am    1  UNL1       -0.2839
     13 C          63.1460   81.6980   10.7533 C.ar    1  UNL1        0.0467
     14 C          63.3747   82.4351    9.4671 C.ar    1  UNL1        0.0144
     15 C          63.5831   83.9205    9.4808 C.ar    1  UNL1        0.0013
     16 C          63.5627   84.6687   10.7807 C.ar    1  UNL1       -0.0002
     17 C          63.3341   83.9316   12.0669 C.ar    1  UNL1       -0.0026
     18 C          63.1257   82.4462   12.0532 C.ar    1  UNL1       -0.0008
     19 C          62.8794   81.4571   13.1536 C.3     1  UNL1        0.0927
     20 C          62.6783   81.0042   14.5694 C.3     1  UNL1        0.0179
     21 C          62.9120   82.4557   14.2723 C.3     1  UNL1        0.0315
     22 H          62.8737   79.5191   10.3880 H       1  UNL1        0.1549
     23 C          63.9455   89.3016   15.9152 C.2     1  UNL1        0.0209
     24 C          64.2848   89.4472   14.4614 C.2     1  UNL1        0.0016
     25 C          64.8451   90.7405   13.9479 C.ar    1  UNL1        0.0000
     26 C          64.4092   91.2695   12.6137 C.ar    1  UNL1       -0.0003
     27 C          64.9695   92.5628   12.1002 C.ar    1  UNL1       -0.0029
     28 C          65.9656   93.3270   12.9210 C.ar    1  UNL1       -0.0061
     29 C          66.4015   92.7980   14.2553 C.ar    1  UNL1       -0.0029
     30 C          65.8413   91.5047   14.7688 C.ar    1  UNL1       -0.0003
     31 C          66.5259   94.6203   12.4075 C.3     1  UNL1        0.0993
     32 N          66.8622   94.7669   10.9532 N.3     1  UNL1       -0.2646
     33 C          67.4349   93.6063   10.1950 C.3     1  UNL1        0.1049
     34 C          67.7713   93.7530    8.7405 C.3     1  UNL1        0.1595
     35 O          67.5349   95.0604    8.0442 O.3     1  UNL1       -0.3508
     36 C          66.9621   96.2211    8.8025 C.3     1  UNL1        0.1595
     37 C          66.6258   96.0744   10.2569 C.3     1  UNL1        0.1049
@<TRIPOS>BOND
     1    10    11    2
     2    11    12   am
     3    12    13    1
     4    13    14   ar
     5    14    15   ar
     6    15    16   ar
     7    16    17   ar
     8    17    18   ar
     9    18    19    1
    10    19    20    1
    11    20    21    1
    12    21     1    1
    13     1     2    2
    14     2     3    1
    15     3     4    2
    16     4     5    1
    17     5    23    1
    18    23    24    2
    19    24    25    1
    20    25    26   ar
    21    26    27   ar
    22    27    28   ar
    23    28    31    1
    24    31    32    1
    25    32    33    1
    26    33    34    1
    27    34    35    1
    28    35    36    1
    29    36    37    1
    30    28    29   ar
    31    29    30   ar
    32     5     6    2
    33     6     7    1
    34     7     8    2
    35     8     9    1
    36    19    11    1
    37     9     1    1
    38    18    13   ar
    39    21    19    1
    40     8     4    1
    41    30    25   ar
    42    37    32    1
    43    12    22    1
@<TRIPOS>MOLECULE
*****
 37 43 0 0 0
SMALL
GASTEIGER

@<TRIPOS>ATOM
      1 C          62.0565   85.3646   10.7368 C.2     1  UNL1       -0.0378
      2 C          62.6476   85.7432    9.4111 C.2     1  UNL1       -0.0080
      3 C          62.2048   87.0011    8.7243 C.2     1  UNL1        0.0022
      4 C          61.1711   87.8804    9.3632 C.2     1  UNL1        0.0350
      5 C          60.5430   89.1709    8.9272 C.2     1  UNL1        0.1040
      6 N          59.5638   89.5899    9.9835 N.2     1  UNL1       -0.1483
      7 N          59.5867   88.5583   11.0722 N.2     1  UNL1       -0.1520
      8 C          60.5800   87.5018   10.6888 C.2     1  UNL1        0.0860
      9 C          61.0228   86.2438   11.3756 C.3     1  UNL1        0.0697
     10 O          63.5318   80.8113   13.0097 O.2     1  UNL1       -0.2744
     11 C          63.7040   82.2597   13.3596 C.2     1  UNL1        0.2293
     12 N          64.4124   82.7968   14.5678 N.am    1  UNL1       -0.2839
     13 C          64.3442   84.2944   14.5177 C.ar    1  UNL1        0.0467
     14 C          64.8686   85.3544   15.4403 C.ar    1  UNL1        0.0144
     15 C          64.6423   86.8031   15.1237 C.ar    1  UNL1        0.0013
     16 C          63.8915   87.1916   13.8846 C.ar    1  UNL1       -0.0002
     17 C          63.3671   86.1316   12.9620 C.ar    1  UNL1       -0.0026
     18 C          63.5934   84.6829   13.2786 C.ar    1  UNL1       -0.0008
     19 C          63.1978   83.4255   12.5629 C.3     1  UNL1        0.0927
     20 C          62.5676   82.6091   11.4737 C.3     1  UNL1        0.0179
     21 C          62.4993   84.1066   11.4236 C.3     1  UNL1        0.0315
     22 H          64.8461   82.2605   15.2703 H       1  UNL1        0.1549
     23 C          60.8417   89.9122    7.6579 C.2     1  UNL1        0.0209
     24 C          59.7426   90.1916    6.6761 C.2     1  UNL1        0.0016
     25 C          60.0413   90.9330    5.4068 C.ar    1  UNL1        0.0000
     26 C          61.4217   90.8919    4.8213 C.ar    1  UNL1       -0.0003
     27 C          61.7203   91.6333    3.5520 C.ar    1  UNL1       -0.0029
     28 C          60.6386   92.4157    2.8681 C.ar    1  UNL1       -0.0061
     29 C          59.2581   92.4568    3.4536 C.ar    1  UNL1       -0.0029
     30 C          58.9595   91.7155    4.7230 C.ar    1  UNL1       -0.0003
     31 C          60.9373   93.1571    1.5988 C.3     1  UNL1        0.0993
     32 N          59.8507   93.3856    0.5904 N.3     1  UNL1       -0.2646
     33 C          59.3698   92.2506   -0.2643 C.3     1  UNL1        0.1049
     34 C          58.2832   92.4792   -1.2728 C.3     1  UNL1        0.1595
     35 O          57.6774   93.8428   -1.4265 O.3     1  UNL1       -0.3508
     36 C          58.1583   94.9778   -0.5718 C.3     1  UNL1        0.1595
     37 C          59.2449   94.7492    0.4366 C.3     1  UNL1        0.1049
@<TRIPOS>BOND
     1    10    11    2
     2    11    12   am
     3    12    13    1
     4    13    14   ar
     5    14    15   ar
     6    15    16   ar
     7    16    17   ar
     8    17    18   ar
     9    18    19    1
    10    19    20    1
    11    20    21    1
    12    21     1    1
    13     1     2    2
    14     2     3    1
    15     3     4    2
    16     4     5    1
    17     5    23    1
    18    23    24    2
    19    24    25    1
    20    25    26   ar
    21    26    27   ar
    22    27    28   ar
    23    28    31    1
    24    31    32    1
    25    32    33    1
    26    33    34    1
    27    34    35    1
    28    35    36    1
    29    36    37    1
    30    28    29   ar
    31    29    30   ar
    32     5     6    2
    33     6     7    1
    34     7     8    2
    35     8     9    1
    36    19    11    1
    37     9     1    1
    38    18    13   ar
    39    21    19    1
    40     8     4    1
    41    30    25   ar
    42    37    32    1
    43    12    22    1
@<TRIPOS>MOLECULE
*****
 37 43 0 0 0
SMALL
GASTEIGER

@<TRIPOS>ATOM
      1 C          62.0837   87.4910   11.3309 C.2     1  UNL1       -0.0378
      2 C          62.5291   88.7602   10.6670 C.2     1  UNL1       -0.0080
      3 C          61.7794   89.2888    9.4802 C.2     1  UNL1        0.0022
      4 C          60.5843   88.5481    8.9573 C.2     1  UNL1        0.0350
      5 C          59.6541   88.8239    7.8134 C.2     1  UNL1        0.1040
      6 N          58.6339   87.7250    7.7703 N.2     1  UNL1       -0.1483
      7 N          58.9337   86.7702    8.8877 N.2     1  UNL1       -0.1520
      8 C          60.1390   87.2789    9.6212 C.2     1  UNL1        0.0860
      9 C          60.8888   86.7504   10.8081 C.3     1  UNL1        0.0697
     10 O          64.6910   85.8018   15.6233 O.2     1  UNL1       -0.2744
     11 C          64.3989   85.2106   14.2760 C.2     1  UNL1        0.2293
     12 N          64.8306   83.8571   13.7947 N.am    1  UNL1       -0.2839
     13 C          64.3224   83.6790   12.3947 C.ar    1  UNL1        0.0467
     14 C          64.4423   82.5453   11.4200 C.ar    1  UNL1        0.0144
     15 C          63.8165   82.6550   10.0613 C.ar    1  UNL1        0.0013
     16 C          63.0706   83.8985    9.6773 C.ar    1  UNL1       -0.0002
     17 C          62.9506   85.0322   10.6520 C.ar    1  UNL1       -0.0026
     18 C          63.5765   84.9225   12.0108 C.ar    1  UNL1       -0.0008
     19 C          63.6238   85.8690   13.1734 C.3     1  UNL1        0.0927
     20 C          63.3418   87.1404   13.9177 C.3     1  UNL1        0.0179
     21 C          62.8335   86.9624   12.5178 C.3     1  UNL1        0.0315
     22 H          65.3555   83.2008   14.3076 H       1  UNL1        0.1549
     23 C          59.7307   89.9931    6.8769 C.2     1  UNL1        0.0209
     24 C          60.4460   89.8580    5.5654 C.2     1  UNL1        0.0016
     25 C          60.5225   91.0273    4.6289 C.ar    1  UNL1        0.0000
     26 C          61.7509   91.2413    3.7951 C.ar    1  UNL1       -0.0003
     27 C          61.8274   92.4106    2.8586 C.ar    1  UNL1       -0.0029
     28 C          60.6756   93.3658    2.7559 C.ar    1  UNL1       -0.0061
     29 C          59.4471   93.1519    3.5897 C.ar    1  UNL1       -0.0029
     30 C          59.3705   91.9826    4.5262 C.ar    1  UNL1       -0.0003
     31 C          60.7521   94.5351    1.8194 C.3     1  UNL1        0.0993
     32 N          59.6844   94.7393    0.7859 N.3     1  UNL1       -0.2646
     33 C          59.3417   96.1250    0.3251 C.3     1  UNL1        0.1049
     34 C          58.2739   96.3292   -0.7085 C.3     1  UNL1        0.1595
     35 O          57.5489   95.1475   -1.2813 O.3     1  UNL1       -0.3508
     36 C          57.8916   93.7617   -0.8205 C.3     1  UNL1        0.1595
     37 C          58.9593   93.5576    0.2131 C.3     1  UNL1        0.1049
@<TRIPOS>BOND
     1    10    11    2
     2    11    12   am
     3    12    13    1
     4    13    14   ar
     5    14    15   ar
     6    15    16   ar
     7    16    17   ar
     8    17    18   ar
     9    18    19    1
    10    19    20    1
    11    20    21    1
    12    21     1    1
    13     1     2    2
    14     2     3    1
    15     3     4    2
    16     4     5    1
    17     5    23    1
    18    23    24    2
    19    24    25    1
    20    25    26   ar
    21    26    27   ar
    22    27    28   ar
    23    28    31    1
    24    31    32    1
    25    32    33    1
    26    33    34    1
    27    34    35    1
    28    35    36    1
    29    36    37    1
    30    28    29   ar
    31    29    30   ar
    32     5     6    2
    33     6     7    1
    34     7     8    2
    35     8     9    1
    36    19    11    1
    37     9     1    1
    38    18    13   ar
    39    21    19    1
    40     8     4    1
    41    30    25   ar
    42    37    32    1
    43    12    22    1
@<TRIPOS>MOLECULE
*****
 37 43 0 0 0
SMALL
GASTEIGER

@<TRIPOS>ATOM
      1 C          58.1560   94.2422   -2.6864 C.2     1  UNL1       -0.0378
      2 C          57.9157   92.9466   -1.9695 C.2     1  UNL1       -0.0080
      3 C          58.5235   92.7133   -0.6182 C.2     1  UNL1        0.0022
      4 C          59.3716   93.7755    0.0162 C.2     1  UNL1        0.0350
      5 C          60.0968   93.8303    1.3280 C.2     1  UNL1        0.1040
      6 N          60.7853   95.1597    1.4220 N.2     1  UNL1       -0.1483
      7 N          60.4855   95.9265    0.1681 N.2     1  UNL1       -0.1520
      8 C          59.6119   95.0711   -0.7007 C.2     1  UNL1        0.0860
      9 C          59.0040   95.3044   -2.0520 C.3     1  UNL1        0.0697
     10 O          56.1860   95.0004   -7.5465 O.2     1  UNL1       -0.2744
     11 C          55.6514   95.1940   -6.1584 C.2     1  UNL1        0.2293
     12 N          54.2859   95.7028   -5.8026 N.am    1  UNL1       -0.2839
     13 C          54.1789   95.7361   -4.3067 C.ar    1  UNL1        0.0467
     14 C          53.0662   96.1479   -3.3890 C.ar    1  UNL1        0.0144
     15 C          53.2528   96.0714   -1.9027 C.ar    1  UNL1        0.0013
     16 C          54.5522   95.5832   -1.3341 C.ar    1  UNL1       -0.0002
     17 C          55.6649   95.1714   -2.2518 C.ar    1  UNL1       -0.0026
     18 C          55.4782   95.2479   -3.7381 C.ar    1  UNL1       -0.0008
     19 C          56.3883   94.9128   -4.8825 C.3     1  UNL1        0.0927
     20 C          57.6550   94.4423   -5.5335 C.3     1  UNL1        0.0179
     21 C          57.5480   94.4755   -4.0378 C.3     1  UNL1        0.0315
     22 H          53.5833   95.9683   -6.4390 H       1  UNL1        0.1549
     23 C          60.1281   92.7460    2.3641 C.2     1  UNL1        0.0209
     24 C          59.1453   92.7628    3.4971 C.2     1  UNL1        0.0016
     25 C          59.1766   91.6785    4.5332 C.ar    1  UNL1        0.0000
     26 C          60.4817   91.0492    4.9211 C.ar    1  UNL1       -0.0003
     27 C          60.5130   89.9649    5.9572 C.ar    1  UNL1       -0.0029
     28 C          59.2391   89.5100    6.6054 C.ar    1  UNL1       -0.0061
     29 C          57.9339   90.1393    6.2176 C.ar    1  UNL1       -0.0029
     30 C          57.9026   91.2236    5.1815 C.ar    1  UNL1       -0.0003
     31 C          59.2704   88.4258    7.6415 C.3     1  UNL1        0.0993
     32 N          60.2006   88.5347    8.8131 N.3     1  UNL1       -0.2646
     33 C          60.1372   89.7338    9.7121 C.3     1  UNL1        0.1049
     34 C          61.0675   89.8428   10.8839 C.3     1  UNL1        0.1595
     35 O          62.0610   88.7526   11.1566 O.3     1  UNL1       -0.3508
     36 C          62.1243   87.5534   10.2575 C.3     1  UNL1        0.1595
     37 C          61.1941   87.4445    9.0859 C.3     1  UNL1        0.1049
@<TRIPOS>BOND
     1    10    11    2
     2    11    12   am
     3    12    13    1
     4    13    14   ar
     5    14    15   ar
     6    15    16   ar
     7    16    17   ar
     8    17    18   ar
     9    18    19    1
    10    19    20    1
    11    20    21    1
    12    21     1    1
    13     1     2    2
    14     2     3    1
    15     3     4    2
    16     4     5    1
    17     5    23    1
    18    23    24    2
    19    24    25    1
    20    25    26   ar
    21    26    27   ar
    22    27    28   ar
    23    28    31    1
    24    31    32    1
    25    32    33    1
    26    33    34    1
    27    34    35    1
    28    35    36    1
    29    36    37    1
    30    28    29   ar
    31    29    30   ar
    32     5     6    2
    33     6     7    1
    34     7     8    2
    35     8     9    1
    36    19    11    1
    37     9     1    1
    38    18    13   ar
    39    21    19    1
    40     8     4    1
    41    30    25   ar
    42    37    32    1
    43    12    22    1
@<TRIPOS>MOLECULE
*****
 37 43 0 0 0
SMALL
GASTEIGER

@<TRIPOS>ATOM
      1 C          62.4875   94.6857   -2.1630 C.2     1  UNL1       -0.0378
      2 C          62.6255   93.3323   -1.5308 C.2     1  UNL1       -0.0080
      3 C          62.0555   93.0801   -0.1665 C.2     1  UNL1        0.0022
      4 C          61.3473   94.1813    0.5657 C.2     1  UNL1        0.0350
      5 C          60.6882   94.2293    1.9122 C.2     1  UNL1        0.1040
      6 N          60.1427   95.6122    2.1123 N.2     1  UNL1       -0.1483
      7 N          60.4649   96.4189    0.8894 N.2     1  UNL1       -0.1520
      8 C          61.2093   95.5346   -0.0664 C.2     1  UNL1        0.0860
      9 C          61.7795   95.7867   -1.4308 C.3     1  UNL1        0.0697
     10 O          64.6858   95.6141   -6.8938 O.2     1  UNL1       -0.2744
     11 C          63.3077   95.2390   -6.4355 C.2     1  UNL1        0.2293
     12 N          62.1144   95.0197   -7.3176 N.am    1  UNL1       -0.2839
     13 C          60.9501   94.6625   -6.4419 C.ar    1  UNL1        0.0467
     14 C          59.5198   94.3385   -6.7567 C.ar    1  UNL1        0.0144
     15 C          58.5631   94.0128   -5.6482 C.ar    1  UNL1        0.0013
     16 C          59.0368   94.0113   -4.2250 C.ar    1  UNL1       -0.0002
     17 C          60.4671   94.3354   -3.9102 C.ar    1  UNL1       -0.0026
     18 C          61.4237   94.6610   -5.0187 C.ar    1  UNL1       -0.0008
     19 C          62.8808   95.0173   -5.0147 C.3     1  UNL1        0.0927
     20 C          64.2219   95.2950   -4.4029 C.3     1  UNL1        0.0179
     21 C          63.0577   94.9378   -3.5274 C.3     1  UNL1        0.0315
     22 H          62.0983   95.0968   -8.2989 H       1  UNL1        0.1549
     23 C          60.5914   93.0937    2.8874 C.2     1  UNL1        0.0209
     24 C          59.3050   92.8377    3.6152 C.2     1  UNL1        0.0016
     25 C          59.2082   91.7021    4.5905 C.ar    1  UNL1        0.0000
     26 C          57.8752   91.3106    5.1559 C.ar    1  UNL1       -0.0003
     27 C          57.7784   90.1750    6.1312 C.ar    1  UNL1       -0.0029
     28 C          59.0146   89.4309    6.5410 C.ar    1  UNL1       -0.0061
     29 C          60.3478   89.8223    5.9755 C.ar    1  UNL1       -0.0029
     30 C          60.4446   90.9579    5.0003 C.ar    1  UNL1       -0.0003
     31 C          58.9178   88.2953    7.5162 C.3     1  UNL1        0.0993
     32 N          60.0273   88.0513    8.4957 N.3     1  UNL1       -0.2646
     33 C          60.7613   86.7432    8.4870 C.3     1  UNL1        0.1049
     34 C          61.8709   86.4992    9.4666 C.3     1  UNL1        0.1595
     35 O          62.2463   87.5634   10.4548 O.3     1  UNL1       -0.3508
     36 C          61.5123   88.8716   10.4635 C.3     1  UNL1        0.1595
     37 C          60.4028   89.1155    9.4839 C.3     1  UNL1        0.1049
@<TRIPOS>BOND
     1    10    11    2
     2    11    12   am
     3    12    13    1
     4    13    14   ar
     5    14    15   ar
     6    15    16   ar
     7    16    17   ar
     8    17    18   ar
     9    18    19    1
    10    19    20    1
    11    20    21    1
    12    21     1    1
    13     1     2    2
    14     2     3    1
    15     3     4    2
    16     4     5    1
    17     5    23    1
    18    23    24    2
    19    24    25    1
    20    25    26   ar
    21    26    27   ar
    22    27    28   ar
    23    28    31    1
    24    31    32    1
    25    32    33    1
    26    33    34    1
    27    34    35    1
    28    35    36    1
    29    36    37    1
    30    28    29   ar
    31    29    30   ar
    32     5     6    2
    33     6     7    1
    34     7     8    2
    35     8     9    1
    36    19    11    1
    37     9     1    1
    38    18    13   ar
    39    21    19    1
    40     8     4    1
    41    30    25   ar
    42    37    32    1
    43    12    22    1
