@<TRIPOS>MOLECULE
*****
 36 40 0 0 0
SMALL
GASTEIGER

@<TRIPOS>ATOM
      1 C          59.4332   90.9802    5.1698 C.2     1  UNL1        0.2425
      2 O          60.9274   90.8634    5.1079 O.2     1  UNL1       -0.2733
      3 N          58.6540   90.1341    6.1326 N.am    1  UNL1       -0.3018
      4 H          57.6734   90.2108    6.1732 H       1  UNL1        0.1495
      5 C          59.3691   89.1713    7.0335 C.3     1  UNL1        0.1035
      6 C          60.2372   89.3018    8.2499 C.3     1  UNL1        0.0933
      7 N          60.3803   87.8098    8.3078 N.3     1  UNL1       -0.2711
      8 C          59.5123   87.6793    7.0914 C.3     1  UNL1        0.0933
      9 C          61.0954   86.8469    9.2087 C.3     1  UNL1        0.0576
     10 C          62.0944   85.8852    8.6368 C.3     1  UNL1        0.0163
     11 C          62.8094   84.9225    9.5377 C.3     1  UNL1        0.0063
     12 C          62.5254   84.9213   11.0106 C.3     1  UNL1        0.0301
     13 C          61.5265   85.8830   11.5825 C.3     1  UNL1        0.0063
     14 C          60.8114   86.8458   10.6816 C.3     1  UNL1        0.0163
     15 C          63.2405   83.9585   11.9114 C.ar    1  UNL1        0.0275
     16 C          64.1268   82.8312   11.4711 C.ar    1  UNL1        0.1016
     17 N          64.6289   82.1298   12.6982 N.ar    1  UNL1       -0.2351
     18 C          64.0531   82.8236   13.8970 C.ar    1  UNL1        0.1342
     19 S          63.1950   83.9537   13.4108 S.2     1  UNL1       -0.0688
     20 C          58.7182   91.9430    4.2688 C.3     1  UNL1        0.1747
     21 N          59.4104   93.1895    3.8029 N.pl3   1  UNL1       -0.3093
     22 H          59.3097   94.0274    4.3099 H       1  UNL1        0.1487
     23 C          63.5889   93.0760    0.5767 C.3     1  UNL1        0.1537
     24 N          62.1767   93.1073    1.0815 N.ar    1  UNL1       -0.2476
     25 N          61.7552   93.1322    2.5208 N.ar    1  UNL1       -0.1544
     26 C          60.2561   93.1595    2.5643 C.ar    1  UNL1        0.1500
     27 C          59.7511   93.1514    1.1519 C.ar    1  UNL1        0.0503
     28 C          58.3637   93.1693    0.5819 C.ar    1  UNL1        0.0082
     29 C          58.1634   93.1549   -0.9045 C.ar    1  UNL1        0.0716
     30 C          59.3504   93.1226   -1.8210 C.ar    1  UNL1        0.0054
     31 C          60.7378   93.1048   -1.2510 C.ar    1  UNL1        0.0188
     32 C          60.9381   93.1192    0.2354 C.ar    1  UNL1        0.0807
     33 C          56.7760   93.1727   -1.4746 C.3     1  UNL1        0.4186
     34 F          55.3887   93.1906   -2.0446 F       1  UNL1       -0.1659
     35 F          56.8335   94.6687   -1.5676 F       1  UNL1       -0.1659
     36 F          56.7185   91.6767   -1.3815 F       1  UNL1       -0.1659
@<TRIPOS>BOND
     1    23    24    1
     2    24    25   ar
     3    25    26   ar
     4    26    21    1
     5    21    20    1
     6    20     1    1
     7     1     2    2
     8     1     3   am
     9     3     5    1
    10     5     6    1
    11     6     7    1
    12     9     7    1
    13     9    10    1
    14    10    11    1
    15    11    12    1
    16    12    15    1
    17    15    16   ar
    18    16    17   ar
    19    17    18   ar
    20    18    19   ar
    21    12    13    1
    22    13    14    1
    23     7     8    1
    24    26    27   ar
    25    27    28   ar
    26    28    29   ar
    27    29    33    1
    28    33    34    1
    29    33    35    1
    30    33    36    1
    31    29    30   ar
    32    30    31   ar
    33    31    32   ar
    34    32    24   ar
    35     8     5    1
    36    32    27   ar
    37    14     9    1
    38    19    15   ar
    39    21    22    1
    40     3     4    1
@<TRIPOS>MOLECULE
*****
 36 40 0 0 0
SMALL
GASTEIGER

@<TRIPOS>ATOM
      1 C          59.4457   91.0839    5.0953 C.2     1  UNL1        0.2425
      2 O          60.9341   90.9205    5.0061 O.2     1  UNL1       -0.2733
      3 N          58.6602   90.2739    6.0835 N.am    1  UNL1       -0.3018
      4 H          57.6833   90.3812    6.1421 H       1  UNL1        0.1495
      5 C          59.3631   89.3004    6.9826 C.3     1  UNL1        0.1035
      6 C          60.2803   89.4191    8.1636 C.3     1  UNL1        0.0933
      7 N          60.3571   87.9238    8.2541 N.3     1  UNL1       -0.2711
      8 C          59.4399   87.8052    7.0731 C.3     1  UNL1        0.0933
      9 C          61.0600   86.9503    9.1532 C.3     1  UNL1        0.0576
     10 C          60.7843   86.9573   10.6276 C.3     1  UNL1        0.0163
     11 C          61.4872   85.9839   11.5266 C.3     1  UNL1        0.0063
     12 C          62.4658   85.0033   10.9513 C.3     1  UNL1        0.0301
     13 C          62.7415   84.9963    9.4769 C.3     1  UNL1        0.0063
     14 C          62.0386   85.9698    8.5778 C.3     1  UNL1        0.0163
     15 C          63.1686   84.0299   11.8504 C.ar    1  UNL1        0.0275
     16 C          64.1758   83.0038   11.4230 C.ar    1  UNL1        0.1016
     17 N          64.6174   82.2513   12.6432 N.ar    1  UNL1       -0.2351
     18 C          63.8831   82.8124   13.8247 C.ar    1  UNL1        0.1342
     19 S          62.9877   83.9116   13.3348 S.2     1  UNL1       -0.0688
     20 C          58.7429   92.0574    4.1962 C.3     1  UNL1        0.1747
     21 N          59.5233   93.1308    3.4970 N.pl3   1  UNL1       -0.3093
     22 H          59.9195   93.8682    4.0151 H       1  UNL1        0.1487
     23 C          58.5167   92.6901   -1.6676 C.3     1  UNL1        0.1537
     24 N          59.2374   92.8780   -0.3656 N.ar    1  UNL1       -0.2476
     25 N          58.6151   92.8484    0.9989 N.ar    1  UNL1       -0.1544
     26 C          59.7001   93.0805    2.0083 C.ar    1  UNL1        0.1500
     27 C          60.9930   93.2536    1.2676 C.ar    1  UNL1        0.0503
     28 C          62.3936   93.5091    1.7396 C.ar    1  UNL1        0.0082
     29 C          63.5084   93.6393    0.7444 C.ar    1  UNL1        0.0716
     30 C          63.2224   93.5141   -0.7227 C.ar    1  UNL1        0.0054
     31 C          61.8217   93.2587   -1.1947 C.ar    1  UNL1        0.0188
     32 C          60.7070   93.1284   -0.1995 C.ar    1  UNL1        0.0807
     33 C          64.9091   93.8948    1.2164 C.3     1  UNL1        0.4186
     34 F          66.3098   94.1502    1.6884 F       1  UNL1       -0.1659
     35 F          64.4432   95.1281    1.9317 F       1  UNL1       -0.1659
     36 F          65.3751   92.6614    0.5012 F       1  UNL1       -0.1659
@<TRIPOS>BOND
     1    23    24    1
     2    24    25   ar
     3    25    26   ar
     4    26    21    1
     5    21    20    1
     6    20     1    1
     7     1     2    2
     8     1     3   am
     9     3     5    1
    10     5     6    1
    11     6     7    1
    12     9     7    1
    13     9    10    1
    14    10    11    1
    15    11    12    1
    16    12    15    1
    17    15    16   ar
    18    16    17   ar
    19    17    18   ar
    20    18    19   ar
    21    12    13    1
    22    13    14    1
    23     7     8    1
    24    26    27   ar
    25    27    28   ar
    26    28    29   ar
    27    29    33    1
    28    33    34    1
    29    33    35    1
    30    33    36    1
    31    29    30   ar
    32    30    31   ar
    33    31    32   ar
    34    32    24   ar
    35     8     5    1
    36    32    27   ar
    37    14     9    1
    38    19    15   ar
    39    21    22    1
    40     3     4    1
@<TRIPOS>MOLECULE
*****
 36 40 0 0 0
SMALL
GASTEIGER

@<TRIPOS>ATOM
      1 C          59.4360   91.2149    4.8130 C.2     1  UNL1        0.2425
      2 O          60.9075   90.9241    4.8224 O.2     1  UNL1       -0.2733
      3 N          58.8458   92.0616    3.7245 N.am    1  UNL1       -0.3018
      4 H          57.8800   92.2525    3.7183 H       1  UNL1        0.1495
      5 C          59.7271   92.6175    2.6455 C.3     1  UNL1        0.1035
      6 C          61.2072   92.7815    2.4644 C.3     1  UNL1        0.0933
      7 N          60.9737   93.4035    1.1196 N.3     1  UNL1       -0.2711
      8 C          59.4937   93.2395    1.3008 C.3     1  UNL1        0.0933
      9 C          61.8550   93.9594    0.0406 C.3     1  UNL1        0.0576
     10 C          62.5889   95.2488    0.2617 C.3     1  UNL1        0.0163
     11 C          63.4702   95.8046   -0.8172 C.3     1  UNL1        0.0063
     12 C          63.6177   95.0711   -2.1174 C.3     1  UNL1        0.0301
     13 C          62.8838   93.7818   -2.3385 C.3     1  UNL1        0.0063
     14 C          62.0024   93.2259   -1.2595 C.3     1  UNL1        0.0163
     15 C          64.4990   95.6271   -3.1963 C.ar    1  UNL1        0.0275
     16 C          65.6589   96.5570   -2.9954 C.ar    1  UNL1        0.1016
     17 N          66.2520   96.8554   -4.3404 N.ar    1  UNL1       -0.2351
     18 C          65.4589   96.1100   -5.3726 C.ar    1  UNL1        0.1342
     19 S          64.3755   95.3509   -4.6655 S.2     1  UNL1       -0.0688
     20 C          58.5547   90.6591    5.8920 C.3     1  UNL1        0.1747
     21 N          59.0872   90.4940    7.2846 N.pl3   1  UNL1       -0.3093
     22 H          59.0509   91.2469    7.9179 H       1  UNL1        0.1487
     23 C          60.2591   85.3503    7.5060 C.3     1  UNL1        0.1537
     24 N          60.2136   86.8176    7.8140 N.ar    1  UNL1       -0.2476
     25 N          59.4285   87.8521    7.0635 N.ar    1  UNL1       -0.1544
     26 C          59.6750   89.1819    7.7122 C.ar    1  UNL1        0.1500
     27 C          60.6125   88.9693    8.8637 C.ar    1  UNL1        0.0503
     28 C          61.2061   89.9174    9.8630 C.ar    1  UNL1        0.0082
     29 C          62.1325   89.4043   10.9252 C.ar    1  UNL1        0.0716
     30 C          62.4655   87.9431   10.9881 C.ar    1  UNL1        0.0054
     31 C          61.8719   86.9950    9.9888 C.ar    1  UNL1        0.0188
     32 C          60.9454   87.5080    8.9266 C.ar    1  UNL1        0.0807
     33 C          62.7262   90.3525   11.9246 C.3     1  UNL1        0.4186
     34 F          63.3198   91.3006   12.9239 F       1  UNL1       -0.1659
     35 F          63.6823   90.8522   10.8825 F       1  UNL1       -0.1659
     36 F          61.7700   89.8528   12.9667 F       1  UNL1       -0.1659
@<TRIPOS>BOND
     1    23    24    1
     2    24    25   ar
     3    25    26   ar
     4    26    21    1
     5    21    20    1
     6    20     1    1
     7     1     2    2
     8     1     3   am
     9     3     5    1
    10     5     6    1
    11     6     7    1
    12     9     7    1
    13     9    10    1
    14    10    11    1
    15    11    12    1
    16    12    15    1
    17    15    16   ar
    18    16    17   ar
    19    17    18   ar
    20    18    19   ar
    21    12    13    1
    22    13    14    1
    23     7     8    1
    24    26    27   ar
    25    27    28   ar
    26    28    29   ar
    27    29    33    1
    28    33    34    1
    29    33    35    1
    30    33    36    1
    31    29    30   ar
    32    30    31   ar
    33    31    32   ar
    34    32    24   ar
    35     8     5    1
    36    32    27   ar
    37    14     9    1
    38    19    15   ar
    39    21    22    1
    40     3     4    1
@<TRIPOS>MOLECULE
*****
 36 40 0 0 0
SMALL
GASTEIGER

@<TRIPOS>ATOM
      1 C          61.2809   86.9261    9.9484 C.2     1  UNL1        0.2425
      2 O          62.5223   87.1893    9.1486 O.2     1  UNL1       -0.2733
      3 N          59.9874   87.5803    9.5627 N.am    1  UNL1       -0.3018
      4 H          59.1726   87.4075   10.0876 H       1  UNL1        0.1495
      5 C          59.9353   88.4978    8.3771 C.3     1  UNL1        0.1035
      6 C          59.3757   88.4057    6.9884 C.3     1  UNL1        0.0933
      7 N          59.8616   89.7953    6.7005 N.3     1  UNL1       -0.2711
      8 C          60.4212   89.8874    8.0892 C.3     1  UNL1        0.0933
      9 C          59.8096   90.7128    5.5150 C.3     1  UNL1        0.0576
     10 C          61.0651   91.0344    4.7598 C.3     1  UNL1        0.0163
     11 C          61.0131   91.9519    3.5743 C.3     1  UNL1        0.0063
     12 C          59.7055   92.5479    3.1439 C.3     1  UNL1        0.0301
     13 C          58.4500   92.2263    3.8991 C.3     1  UNL1        0.0063
     14 C          58.5021   91.3088    5.0846 C.3     1  UNL1        0.0163
     15 C          59.6536   93.4654    1.9584 C.ar    1  UNL1        0.0275
     16 C          58.9834   93.1756    0.6480 C.ar    1  UNL1        0.1016
     17 N          59.1783   94.3648   -0.2452 N.ar    1  UNL1       -0.2351
     18 C          59.9688   95.3895    0.5131 C.ar    1  UNL1        0.1342
     19 S          60.2626   94.8337    1.8750 S.2     1  UNL1       -0.0688
     20 C          61.3329   86.0085   11.1339 C.3     1  UNL1        0.1747
     21 N          62.5886   85.9057   11.9482 N.pl3   1  UNL1       -0.3093
     22 H          63.3488   86.5017   11.7580 H       1  UNL1        0.1487
     23 C          62.8678   83.7223   16.7477 C.3     1  UNL1        0.1537
     24 N          62.8142   83.8912   15.2582 N.ar    1  UNL1       -0.2476
     25 N          62.7084   85.1938   14.5218 N.ar    1  UNL1       -0.1544
     26 C          62.6859   84.8949   13.0521 C.ar    1  UNL1        0.1500
     27 C          62.7777   83.4076   12.8801 C.ar    1  UNL1        0.0503
     28 C          62.7993   82.5380   11.6581 C.ar    1  UNL1        0.0082
     29 C          62.9003   81.0481   11.7996 C.ar    1  UNL1        0.0716
     30 C          62.9796   80.4278   13.1630 C.ar    1  UNL1        0.0054
     31 C          62.9580   81.2974   14.3850 C.ar    1  UNL1        0.0188
     32 C          62.8570   82.7873   14.2435 C.ar    1  UNL1        0.0807
     33 C          62.9219   80.1784   10.5775 C.3     1  UNL1        0.4186
     34 F          62.9436   79.3088    9.3556 F       1  UNL1       -0.1659
     35 F          62.5638   78.9887   11.4179 F       1  UNL1       -0.1659
     36 F          63.2801   81.3681    9.7371 F       1  UNL1       -0.1659
@<TRIPOS>BOND
     1    23    24    1
     2    24    25   ar
     3    25    26   ar
     4    26    21    1
     5    21    20    1
     6    20     1    1
     7     1     2    2
     8     1     3   am
     9     3     5    1
    10     5     6    1
    11     6     7    1
    12     9     7    1
    13     9    10    1
    14    10    11    1
    15    11    12    1
    16    12    15    1
    17    15    16   ar
    18    16    17   ar
    19    17    18   ar
    20    18    19   ar
    21    12    13    1
    22    13    14    1
    23     7     8    1
    24    26    27   ar
    25    27    28   ar
    26    28    29   ar
    27    29    33    1
    28    33    34    1
    29    33    35    1
    30    33    36    1
    31    29    30   ar
    32    30    31   ar
    33    31    32   ar
    34    32    24   ar
    35     8     5    1
    36    32    27   ar
    37    14     9    1
    38    19    15   ar
    39    21    22    1
    40     3     4    1
@<TRIPOS>MOLECULE
*****
 36 40 0 0 0
SMALL
GASTEIGER

@<TRIPOS>ATOM
      1 C          60.0143   88.7399    9.7174 C.2     1  UNL1        0.2425
      2 O          60.0812   88.2480   11.1328 O.2     1  UNL1       -0.2733
      3 N          61.0151   89.7421    9.2235 N.am    1  UNL1       -0.3018
      4 H          60.9712   90.0649    8.2945 H       1  UNL1        0.1495
      5 C          62.0828   90.2525   10.1453 C.3     1  UNL1        0.1035
      6 C          62.5031   89.9486   11.5528 C.3     1  UNL1        0.0933
      7 N          63.5927   90.9742   11.4489 N.3     1  UNL1       -0.2711
      8 C          63.1724   91.2781   10.0414 C.3     1  UNL1        0.0933
      9 C          64.6604   91.4846   12.3706 C.3     1  UNL1        0.0576
     10 C          64.9223   90.7885   13.6732 C.3     1  UNL1        0.0163
     11 C          65.9899   91.2988   14.5949 C.3     1  UNL1        0.0063
     12 C          66.7958   92.5054   14.2141 C.3     1  UNL1        0.0301
     13 C          66.5338   93.2015   12.9115 C.3     1  UNL1        0.0063
     14 C          65.4661   92.6911   11.9898 C.3     1  UNL1        0.0163
     15 C          67.8634   93.0156   15.1359 C.ar    1  UNL1        0.0275
     16 C          68.1817   94.4568   15.4040 C.ar    1  UNL1        0.1016
     17 N          69.3152   94.5063   16.3852 N.ar    1  UNL1       -0.2351
     18 C          69.6974   93.0958   16.7235 C.ar    1  UNL1        0.1342
     19 S          68.8002   92.1745   15.9514 S.2     1  UNL1       -0.0688
     20 C          58.9467   88.2295    8.7956 C.3     1  UNL1        0.1747
     21 N          58.8711   86.7666    8.4726 N.pl3   1  UNL1       -0.3093
     22 H          58.0145   86.2881    8.5536 H       1  UNL1        0.1487
     23 C          62.4776   84.3960    5.4305 C.3     1  UNL1        0.1537
     24 N          61.7585   84.9430    6.6279 N.ar    1  UNL1       -0.2476
     25 N          60.4441   85.6656    6.6128 N.ar    1  UNL1       -0.1544
     26 C          60.1008   86.0327    8.0261 C.ar    1  UNL1        0.1500
     27 C          61.2030   85.5370    8.9146 C.ar    1  UNL1        0.0503
     28 C          61.4062   85.6119   10.3989 C.ar    1  UNL1        0.0082
     29 C          62.6338   85.0133   11.0189 C.ar    1  UNL1        0.0716
     30 C          63.6583   84.3399   10.1548 C.ar    1  UNL1        0.0054
     31 C          63.4552   84.2650    8.6705 C.ar    1  UNL1        0.0188
     32 C          62.2276   84.8636    8.0504 C.ar    1  UNL1        0.0807
     33 C          62.8370   85.0882   12.5033 C.3     1  UNL1        0.4186
     34 F          63.0401   85.1630   13.9876 F       1  UNL1       -0.1659
     35 F          62.5662   83.6170   12.6145 F       1  UNL1       -0.1659
     36 F          63.1077   86.5593   12.3921 F       1  UNL1       -0.1659
@<TRIPOS>BOND
     1    23    24    1
     2    24    25   ar
     3    25    26   ar
     4    26    21    1
     5    21    20    1
     6    20     1    1
     7     1     2    2
     8     1     3   am
     9     3     5    1
    10     5     6    1
    11     6     7    1
    12     9     7    1
    13     9    10    1
    14    10    11    1
    15    11    12    1
    16    12    15    1
    17    15    16   ar
    18    16    17   ar
    19    17    18   ar
    20    18    19   ar
    21    12    13    1
    22    13    14    1
    23     7     8    1
    24    26    27   ar
    25    27    28   ar
    26    28    29   ar
    27    29    33    1
    28    33    34    1
    29    33    35    1
    30    33    36    1
    31    29    30   ar
    32    30    31   ar
    33    31    32   ar
    34    32    24   ar
    35     8     5    1
    36    32    27   ar
    37    14     9    1
    38    19    15   ar
    39    21    22    1
    40     3     4    1
@<TRIPOS>MOLECULE
*****
 36 40 0 0 0
SMALL
GASTEIGER

@<TRIPOS>ATOM
      1 C          59.7341   89.0465    8.3440 C.2     1  UNL1        0.2425
      2 O          60.9756   89.8588    8.5647 O.2     1  UNL1       -0.2733
      3 N          58.9762   89.1698    7.0555 N.am    1  UNL1       -0.3018
      4 H          58.1614   88.6366    6.9106 H       1  UNL1        0.1495
      5 C          59.4600   90.1055    5.9876 C.3     1  UNL1        0.1035
      6 C          60.7581   90.3087    5.2638 C.3     1  UNL1        0.0933
      7 N          60.1442   91.4288    4.4773 N.3     1  UNL1       -0.2711
      8 C          58.8462   91.2255    5.2011 C.3     1  UNL1        0.0933
      9 C          60.6279   92.3645    3.4094 C.3     1  UNL1        0.0576
     10 C          62.0525   92.2996    2.9443 C.3     1  UNL1        0.0163
     11 C          62.5362   93.2352    1.8765 C.3     1  UNL1        0.0063
     12 C          61.5954   94.2360    1.2736 C.3     1  UNL1        0.0301
     13 C          60.1708   94.3009    1.7387 C.3     1  UNL1        0.0063
     14 C          59.6871   93.3652    2.8066 C.3     1  UNL1        0.0163
     15 C          62.0792   95.1716    0.2057 C.ar    1  UNL1        0.0275
     16 C          61.3195   95.5755   -1.0231 C.ar    1  UNL1        0.1016
     17 N          62.1784   96.5212   -1.8092 N.ar    1  UNL1       -0.2351
     18 C          63.4689   96.7019   -1.0663 C.ar    1  UNL1        0.1342
     19 S          63.4076   95.8678    0.1790 S.2     1  UNL1       -0.0688
     20 C          59.2503   88.1107    9.4119 C.3     1  UNL1        0.1747
     21 N          60.2380   87.3525   10.2484 N.pl3   1  UNL1       -0.3093
     22 H          60.2724   87.4970   11.2217 H       1  UNL1        0.1487
     23 C          62.8344   84.5372    6.6134 C.3     1  UNL1        0.1537
     24 N          62.3667   85.0799    7.9312 N.ar    1  UNL1       -0.2476
     25 N          61.3253   86.1414    8.1280 N.ar    1  UNL1       -0.1544
     26 C          61.1733   86.3739    9.6020 C.ar    1  UNL1        0.1500
     27 C          62.1207   85.4562   10.3163 C.ar    1  UNL1        0.0503
     28 C          62.4071   85.2454   11.7735 C.ar    1  UNL1        0.0082
     29 C          63.4310   84.2349   12.1981 C.ar    1  UNL1        0.0716
     30 C          64.1686   83.4351   11.1654 C.ar    1  UNL1        0.0054
     31 C          63.8822   83.6459    9.7082 C.ar    1  UNL1        0.0188
     32 C          62.8583   84.6564    9.2836 C.ar    1  UNL1        0.0807
     33 C          63.7174   84.0240   13.6554 C.3     1  UNL1        0.4186
     34 F          64.0038   83.8133   15.1126 F       1  UNL1       -0.1659
     35 F          64.1535   85.4541   13.7765 F       1  UNL1       -0.1659
     36 F          63.2813   82.5940   13.5342 F       1  UNL1       -0.1659
@<TRIPOS>BOND
     1    23    24    1
     2    24    25   ar
     3    25    26   ar
     4    26    21    1
     5    21    20    1
     6    20     1    1
     7     1     2    2
     8     1     3   am
     9     3     5    1
    10     5     6    1
    11     6     7    1
    12     9     7    1
    13     9    10    1
    14    10    11    1
    15    11    12    1
    16    12    15    1
    17    15    16   ar
    18    16    17   ar
    19    17    18   ar
    20    18    19   ar
    21    12    13    1
    22    13    14    1
    23     7     8    1
    24    26    27   ar
    25    27    28   ar
    26    28    29   ar
    27    29    33    1
    28    33    34    1
    29    33    35    1
    30    33    36    1
    31    29    30   ar
    32    30    31   ar
    33    31    32   ar
    34    32    24   ar
    35     8     5    1
    36    32    27   ar
    37    14     9    1
    38    19    15   ar
    39    21    22    1
    40     3     4    1
@<TRIPOS>MOLECULE
*****
 36 40 0 0 0
SMALL
GASTEIGER

@<TRIPOS>ATOM
      1 C          60.7940   87.9031    9.6707 C.2     1  UNL1        0.2425
      2 O          62.1103   88.5813    9.4309 O.2     1  UNL1       -0.2733
      3 N          59.6477   88.1370    8.7321 N.am    1  UNL1       -0.3018
      4 H          58.7838   87.6919    8.8896 H       1  UNL1        0.1495
      5 C          59.8176   89.0493    7.5536 C.3     1  UNL1        0.1035
      6 C          60.5504   90.3341    7.3037 C.3     1  UNL1        0.0933
      7 N          60.0579   90.3394    5.8869 N.3     1  UNL1       -0.2711
      8 C          59.3251   89.0547    6.1368 C.3     1  UNL1        0.0933
      9 C          60.2278   91.2517    4.7083 C.3     1  UNL1        0.0576
     10 C          59.0530   92.0195    4.1787 C.3     1  UNL1        0.0163
     11 C          59.2229   92.9316    3.0002 C.3     1  UNL1        0.0063
     12 C          60.5675   93.0761    2.3512 C.3     1  UNL1        0.0301
     13 C          61.7423   92.3083    2.8808 C.3     1  UNL1        0.0063
     14 C          61.5724   91.3961    4.0594 C.3     1  UNL1        0.0163
     15 C          60.7373   93.9883    1.1727 C.ar    1  UNL1        0.0275
     16 C          61.7061   93.7986    0.0432 C.ar    1  UNL1        0.1016
     17 N          61.5357   94.9434   -0.9108 N.ar    1  UNL1       -0.2351
     18 C          60.4616   95.8408   -0.3711 C.ar    1  UNL1        0.1342
     19 S          59.9682   95.2505    0.9165 S.2     1  UNL1       -0.0688
     20 C          60.6242   86.9909   10.8493 C.3     1  UNL1        0.1747
     21 N          61.2790   85.6413   10.8537 N.pl3   1  UNL1       -0.3093
     22 H          61.0613   84.9862   10.1517 H       1  UNL1        0.1487
     23 C          64.6924   86.0389   14.8626 C.3     1  UNL1        0.1537
     24 N          63.8344   85.4725   13.7702 N.ar    1  UNL1       -0.2476
     25 N          62.9277   86.2542   12.8664 N.ar    1  UNL1       -0.1544
     26 C          62.2655   85.2898   11.9276 C.ar    1  UNL1        0.1500
     27 C          62.7629   83.9121   12.2511 C.ar    1  UNL1        0.0503
     28 C          62.4583   82.5695   11.6559 C.ar    1  UNL1        0.0082
     29 C          63.1232   81.3398   12.1995 C.ar    1  UNL1        0.0716
     30 C          64.0929   81.4527   13.3384 C.ar    1  UNL1        0.0054
     31 C          64.3976   82.7954   13.9336 C.ar    1  UNL1        0.0188
     32 C          63.7326   84.0251   13.3900 C.ar    1  UNL1        0.0807
     33 C          62.8186   79.9970   11.6043 C.3     1  UNL1        0.4186
     34 F          62.5139   78.6543   11.0090 F       1  UNL1       -0.1659
     35 F          63.0661   80.5493   10.2318 F       1  UNL1       -0.1659
     36 F          62.5710   79.4447   12.9767 F       1  UNL1       -0.1659
@<TRIPOS>BOND
     1    23    24    1
     2    24    25   ar
     3    25    26   ar
     4    26    21    1
     5    21    20    1
     6    20     1    1
     7     1     2    2
     8     1     3   am
     9     3     5    1
    10     5     6    1
    11     6     7    1
    12     9     7    1
    13     9    10    1
    14    10    11    1
    15    11    12    1
    16    12    15    1
    17    15    16   ar
    18    16    17   ar
    19    17    18   ar
    20    18    19   ar
    21    12    13    1
    22    13    14    1
    23     7     8    1
    24    26    27   ar
    25    27    28   ar
    26    28    29   ar
    27    29    33    1
    28    33    34    1
    29    33    35    1
    30    33    36    1
    31    29    30   ar
    32    30    31   ar
    33    31    32   ar
    34    32    24   ar
    35     8     5    1
    36    32    27   ar
    37    14     9    1
    38    19    15   ar
    39    21    22    1
    40     3     4    1
@<TRIPOS>MOLECULE
*****
 36 40 0 0 0
SMALL
GASTEIGER

@<TRIPOS>ATOM
      1 C          63.3559   89.6027   16.2680 C.2     1  UNL1        0.2425
      2 O          62.9406   89.7248   14.8318 O.2     1  UNL1       -0.2733
      3 N          63.6538   88.2530   16.8504 N.am    1  UNL1       -0.3018
      4 H          63.9264   88.1728   17.7931 H       1  UNL1        0.1495
      5 C          63.5364   87.0252   15.9967 C.3     1  UNL1        0.1035
      6 C          62.7398   85.7562   16.0676 C.3     1  UNL1        0.0933
      7 N          63.3703   85.2889   14.7893 N.3     1  UNL1       -0.2711
      8 C          64.1669   86.5579   14.7184 C.3     1  UNL1        0.0933
      9 C          63.2529   84.0612   13.9355 C.3     1  UNL1        0.0576
     10 C          62.9876   84.1928   12.4651 C.3     1  UNL1        0.0163
     11 C          62.8702   82.9652   11.6113 C.3     1  UNL1        0.0063
     12 C          63.0181   81.6057   12.2280 C.3     1  UNL1        0.0301
     13 C          63.2834   81.4741   13.6984 C.3     1  UNL1        0.0063
     14 C          63.4008   82.7019   14.5522 C.3     1  UNL1        0.0163
     15 C          62.9007   80.3781   11.3741 C.ar    1  UNL1        0.0275
     16 C          62.6080   78.9900   11.8614 C.ar    1  UNL1        0.1016
     17 N          62.5817   78.0770   10.6716 N.ar    1  UNL1       -0.2351
     18 C          62.8582   78.9008    9.4489 C.ar    1  UNL1        0.1342
     19 S          63.0554   80.3229    9.8831 S.2     1  UNL1       -0.0688
     20 C          63.4733   90.8304   17.1217 C.3     1  UNL1        0.1747
     21 N          63.8422   92.1445   16.4992 N.pl3   1  UNL1       -0.3093
     22 H          63.2162   92.9030   16.5432 H       1  UNL1        0.1487
     23 C          68.9941   92.9122   15.6339 C.3     1  UNL1        0.1537
     24 N          67.5330   92.6555   15.4120 N.ar    1  UNL1       -0.2476
     25 N          66.4806   92.5728   16.4777 N.ar    1  UNL1       -0.1544
     26 C          65.1650   92.3026   15.8098 C.ar    1  UNL1        0.1500
     27 C          65.4042   92.2184   14.3314 C.ar    1  UNL1        0.0503
     28 C          64.4785   91.9714   13.1773 C.ar    1  UNL1        0.0082
     29 C          65.0164   91.9424   11.7773 C.ar    1  UNL1        0.0716
     30 C          66.4799   92.1605   11.5315 C.ar    1  UNL1        0.0054
     31 C          67.4056   92.4076   12.6856 C.ar    1  UNL1        0.0188
     32 C          66.8678   92.4365   14.0855 C.ar    1  UNL1        0.0807
     33 C          64.0907   91.6953   10.6232 C.3     1  UNL1        0.4186
     34 F          63.1650   91.4483    9.4690 F       1  UNL1       -0.1659
     35 F          64.5645   92.9609    9.9722 F       1  UNL1       -0.1659
     36 F          63.6168   90.4297   11.2741 F       1  UNL1       -0.1659
@<TRIPOS>BOND
     1    23    24    1
     2    24    25   ar
     3    25    26   ar
     4    26    21    1
     5    21    20    1
     6    20     1    1
     7     1     2    2
     8     1     3   am
     9     3     5    1
    10     5     6    1
    11     6     7    1
    12     9     7    1
    13     9    10    1
    14    10    11    1
    15    11    12    1
    16    12    15    1
    17    15    16   ar
    18    16    17   ar
    19    17    18   ar
    20    18    19   ar
    21    12    13    1
    22    13    14    1
    23     7     8    1
    24    26    27   ar
    25    27    28   ar
    26    28    29   ar
    27    29    33    1
    28    33    34    1
    29    33    35    1
    30    33    36    1
    31    29    30   ar
    32    30    31   ar
    33    31    32   ar
    34    32    24   ar
    35     8     5    1
    36    32    27   ar
    37    14     9    1
    38    19    15   ar
    39    21    22    1
    40     3     4    1
