@<TRIPOS>MOLECULE
*****
 32 36 0 0 0
SMALL
GASTEIGER

@<TRIPOS>ATOM
      1 C          62.7985   87.3403   11.5323 C.3     1  UNL1        0.1211
      2 C          62.3348   87.8683   10.2071 C.3     1  UNL1        0.0804
      3 N          61.9357   86.9165    9.1186 N.3     1  UNL1       -0.2969
      4 C          62.0002   85.4367    9.3554 C.3     1  UNL1        0.0714
      5 C          62.4639   84.9087   10.6806 C.3     1  UNL1        0.0490
      6 C          62.8630   85.8605   11.7690 C.3     1  UNL1        0.1224
      7 O          63.2918   86.6859   12.9459 O.3     1  UNL1       -0.3492
      8 C          63.6731   85.7499   14.0543 C.3     1  UNL1        0.1687
      9 C          63.4799   84.3460   13.5625 C.ar    1  UNL1        0.0079
     10 C          63.6952   83.0143   14.2183 C.ar    1  UNL1        0.0299
     11 C          63.4098   81.7508   13.4617 C.ar    1  UNL1        0.1671
     12 F          63.6251   80.4191   14.1175 F       1  UNL1       -0.2018
     13 C          62.9092   81.8192   12.0494 C.ar    1  UNL1        0.1671
     14 F          62.6238   80.5558   11.2929 F       1  UNL1       -0.2018
     15 C          62.6939   83.1510   11.3936 C.ar    1  UNL1        0.0297
     16 C          62.9792   84.4144   12.1501 C.ar    1  UNL1        0.0033
     17 H          62.5384   87.1135    8.3197 H       1  UNL1        0.1233
     18 O          64.4192   88.0172   13.4467 O.2     1  UNL1       -0.2747
     19 C          63.1976   88.2921   12.6208 C.2     1  UNL1        0.2294
     20 N          62.3751   89.5187   12.8834 N.am    1  UNL1       -0.2769
     21 C          61.1535   89.7935   12.0574 C.3     1  UNL1        0.0758
     22 C          59.6953   89.5747   11.7822 C.3     1  UNL1        0.0215
     23 C          60.4958   90.4883   10.9021 C.3     1  UNL1        0.0215
     24 C          62.7742   90.4704   13.9719 C.3     1  UNL1        0.1209
     25 C          64.0497   91.2511   13.8552 C.ar    1  UNL1        0.0091
     26 C          64.5798   91.6239   12.5024 C.ar    1  UNL1       -0.0017
     27 C          65.8553   92.4045   12.3857 C.ar    1  UNL1        0.0007
     28 C          66.6008   92.8124   13.6218 C.ar    1  UNL1        0.0122
     29 C          66.0707   92.4396   14.9746 C.ar    1  UNL1        0.0679
     30 CL         66.8162   92.8474   16.2107 Cl      1  UNL1       -0.0814
     31 C          64.7952   91.6589   15.0913 C.ar    1  UNL1        0.0658
     32 CL         64.2652   91.2861   16.4441 Cl      1  UNL1       -0.0816
@<TRIPOS>BOND
     1    18    19    2
     2     1    19    1
     3     1     2    1
     4     2     3    1
     5     3     4    1
     6     4     5    1
     7     6     5    1
     8     6     7    1
     9     7     8    1
    10     8     9    1
    11     9    10   ar
    12    10    11   ar
    13    11    12    1
    14    11    13   ar
    15    13    14    1
    16    13    15   ar
    17    15    16   ar
    18    19    20   am
    19    20    24    1
    20    24    25    1
    21    25    26   ar
    22    26    27   ar
    23    27    28   ar
    24    28    29   ar
    25    29    30    1
    26    29    31   ar
    27    31    32    1
    28    20    21    1
    29    21    22    1
    30    22    23    1
    31     6     1    1
    32    16     9   ar
    33    31    25   ar
    34    23    21    1
    35    16     6    1
    36     3    17    1
@<TRIPOS>MOLECULE
*****
 32 36 0 0 0
SMALL
GASTEIGER

@<TRIPOS>ATOM
      1 C          62.7717   86.2767   10.5942 C.3     1  UNL1        0.1211
      2 C          62.8657   86.5525    9.1228 C.3     1  UNL1        0.0804
      3 N          62.9574   85.4138    8.1508 N.3     1  UNL1       -0.2969
      4 C          62.9551   83.9994    8.6501 C.3     1  UNL1        0.0714
      5 C          62.8611   83.7236   10.1215 C.3     1  UNL1        0.0490
      6 C          62.7694   84.8622   11.0936 C.3     1  UNL1        0.1224
      7 O          62.6724   85.8927   12.1794 O.3     1  UNL1       -0.3492
      8 C          62.5989   85.1750   13.4944 C.3     1  UNL1        0.1687
      9 C          62.6505   83.7008   13.2215 C.ar    1  UNL1        0.0079
     10 C          62.6152   82.5096   14.1323 C.ar    1  UNL1        0.0299
     11 C          62.6852   81.1251   13.5594 C.ar    1  UNL1        0.1671
     12 F          62.6498   79.9339   14.4702 F       1  UNL1       -0.2018
     13 C          62.7905   80.9319   12.0756 C.ar    1  UNL1        0.1671
     14 F          62.8606   79.5474   11.5027 F       1  UNL1       -0.2018
     15 C          62.8259   82.1231   11.1647 C.ar    1  UNL1        0.0297
     16 C          62.7559   83.5076   11.7376 C.ar    1  UNL1        0.0033
     17 H          63.8250   85.5407    7.6297 H       1  UNL1        0.1233
     18 O          63.6055   87.4713   12.7455 O.2     1  UNL1       -0.2747
     19 C          62.6800   87.4154   11.5664 C.2     1  UNL1        0.2294
     20 N          61.6628   88.4982   11.3594 N.am    1  UNL1       -0.2769
     21 C          60.7373   88.4423   10.1802 C.3     1  UNL1        0.0758
     22 C          59.6858   87.7246    9.3871 C.3     1  UNL1        0.0215
     23 C          60.1859   89.0631    8.9310 C.3     1  UNL1        0.0215
     24 C          61.5711   89.6369   12.3315 C.3     1  UNL1        0.1209
     25 C          62.8139   90.3592   12.7599 C.ar    1  UNL1        0.0091
     26 C          63.2796   90.2712   14.1831 C.ar    1  UNL1       -0.0017
     27 C          64.5224   90.9935   14.6116 C.ar    1  UNL1        0.0007
     28 C          65.2996   91.8038   13.6169 C.ar    1  UNL1        0.0122
     29 C          64.8339   91.8918   12.1937 C.ar    1  UNL1        0.0679
     30 CL         65.6111   92.7021   11.1990 Cl      1  UNL1       -0.0814
     31 C          63.5911   91.1695   11.7652 C.ar    1  UNL1        0.0658
     32 CL         63.1254   91.2575   10.3421 Cl      1  UNL1       -0.0816
@<TRIPOS>BOND
     1    18    19    2
     2     1    19    1
     3     1     2    1
     4     2     3    1
     5     3     4    1
     6     4     5    1
     7     6     5    1
     8     6     7    1
     9     7     8    1
    10     8     9    1
    11     9    10   ar
    12    10    11   ar
    13    11    12    1
    14    11    13   ar
    15    13    14    1
    16    13    15   ar
    17    15    16   ar
    18    19    20   am
    19    20    24    1
    20    24    25    1
    21    25    26   ar
    22    26    27   ar
    23    27    28   ar
    24    28    29   ar
    25    29    30    1
    26    29    31   ar
    27    31    32    1
    28    20    21    1
    29    21    22    1
    30    22    23    1
    31     6     1    1
    32    16     9   ar
    33    31    25   ar
    34    23    21    1
    35    16     6    1
    36     3    17    1
@<TRIPOS>MOLECULE
*****
 32 36 0 0 0
SMALL
GASTEIGER

@<TRIPOS>ATOM
      1 C          60.0267   95.5059   -2.7485 C.3     1  UNL1        0.1211
      2 C          60.5873   96.4144   -3.8022 C.3     1  UNL1        0.0804
      3 N          60.1298   96.2849   -5.2249 N.3     1  UNL1       -0.2969
      4 C          59.1118   95.2470   -5.5938 C.3     1  UNL1        0.0714
      5 C          58.5511   94.3385   -4.5401 C.3     1  UNL1        0.0490
      6 C          59.0086   94.4680   -3.1175 C.3     1  UNL1        0.1224
      7 O          59.3682   94.4792   -1.6612 O.3     1  UNL1       -0.3492
      8 C          58.5718   93.4069   -0.9787 C.3     1  UNL1        0.1687
      9 C          57.7199   92.7329   -2.0131 C.ar    1  UNL1        0.0079
     10 C          56.7332   91.6068   -1.9222 C.ar    1  UNL1        0.0299
     11 C          56.0165   91.1363   -3.1531 C.ar    1  UNL1        0.1671
     12 F          55.0299   90.0102   -3.0622 F       1  UNL1       -0.2018
     13 C          56.2865   91.7921   -4.4748 C.ar    1  UNL1        0.1671
     14 F          55.5698   91.3217   -5.7057 F       1  UNL1       -0.2018
     15 C          57.2731   92.9182   -4.5658 C.ar    1  UNL1        0.0297
     16 C          57.9898   93.3886   -3.3350 C.ar    1  UNL1        0.0033
     17 H          60.9607   96.0947   -5.7851 H       1  UNL1        0.1233
     18 O          59.6523   96.3971   -0.3369 O.2     1  UNL1       -0.2747
     19 C          60.4841   95.6354   -1.3258 C.2     1  UNL1        0.2294
     20 N          61.7733   95.0032   -0.8921 N.am    1  UNL1       -0.2769
     21 C          62.6051   94.2414   -1.8810 C.3     1  UNL1        0.0758
     22 C          62.7596   93.1011   -2.8431 C.3     1  UNL1        0.0215
     23 C          63.8913   94.0625   -2.6318 C.3     1  UNL1        0.0215
     24 C          62.2308   95.1326    0.5306 C.3     1  UNL1        0.1209
     25 C          61.8661   94.0793    1.5344 C.ar    1  UNL1        0.0091
     26 C          60.4981   94.0712    2.1496 C.ar    1  UNL1       -0.0017
     27 C          60.1335   93.0179    3.1535 C.ar    1  UNL1        0.0007
     28 C          61.1368   91.9729    3.5422 C.ar    1  UNL1        0.0122
     29 C          62.5049   91.9810    2.9270 C.ar    1  UNL1        0.0679
     30 CL         63.5083   90.9360    3.3157 Cl      1  UNL1       -0.0814
     31 C          62.8696   93.0343    1.9231 C.ar    1  UNL1        0.0658
     32 CL         64.2376   93.0425    1.3079 Cl      1  UNL1       -0.0816
@<TRIPOS>BOND
     1    18    19    2
     2     1    19    1
     3     1     2    1
     4     2     3    1
     5     3     4    1
     6     4     5    1
     7     6     5    1
     8     6     7    1
     9     7     8    1
    10     8     9    1
    11     9    10   ar
    12    10    11   ar
    13    11    12    1
    14    11    13   ar
    15    13    14    1
    16    13    15   ar
    17    15    16   ar
    18    19    20   am
    19    20    24    1
    20    24    25    1
    21    25    26   ar
    22    26    27   ar
    23    27    28   ar
    24    28    29   ar
    25    29    30    1
    26    29    31   ar
    27    31    32    1
    28    20    21    1
    29    21    22    1
    30    22    23    1
    31     6     1    1
    32    16     9   ar
    33    31    25   ar
    34    23    21    1
    35    16     6    1
    36     3    17    1
@<TRIPOS>MOLECULE
*****
 32 36 0 0 0
SMALL
GASTEIGER

@<TRIPOS>ATOM
      1 C          62.3182   89.0177   12.2706 C.3     1  UNL1        0.1211
      2 C          61.3637   89.6456   11.2987 C.3     1  UNL1        0.0804
      3 N          60.6791   88.7993   10.2668 N.3     1  UNL1       -0.2969
      4 C          60.9489   87.3250   10.2068 C.3     1  UNL1        0.0714
      5 C          61.9033   86.6970   11.1787 C.3     1  UNL1        0.0490
      6 C          62.5880   87.5434   12.2106 C.3     1  UNL1        0.1224
      7 O          63.3428   88.2582   13.2920 O.3     1  UNL1       -0.3492
      8 C          64.1766   87.2470   14.0215 C.3     1  UNL1        0.1687
      9 C          63.9371   85.9071   13.3911 C.ar    1  UNL1        0.0079
     10 C          64.4861   84.5440   13.6915 C.ar    1  UNL1        0.0299
     11 C          64.0534   83.3639   12.8728 C.ar    1  UNL1        0.1671
     12 F          64.6024   82.0008   13.1732 F       1  UNL1       -0.2018
     13 C          63.0716   83.5471   11.7537 C.ar    1  UNL1        0.1671
     14 F          62.6389   82.3671   10.9349 F       1  UNL1       -0.2018
     15 C          62.5225   84.9103   11.4532 C.ar    1  UNL1        0.0297
     16 C          62.9553   86.0903   12.2719 C.ar    1  UNL1        0.0033
     17 H          60.9329   89.1824    9.3562 H       1  UNL1        0.1233
     18 O          62.8857   89.5151   14.7567 O.2     1  UNL1       -0.2747
     19 C          63.0029   89.8641   13.3026 C.2     1  UNL1        0.2294
     20 N          63.8047   91.0594   12.8804 N.am    1  UNL1       -0.2769
     21 C          63.9218   91.4083   11.4262 C.3     1  UNL1        0.0758
     22 C          64.6272   92.1294   10.3161 C.3     1  UNL1        0.0215
     23 C          63.4193   91.2917   10.0177 C.3     1  UNL1        0.0215
     24 C          64.4894   91.9057   13.9123 C.3     1  UNL1        0.1209
     25 C          65.9875   91.9620   13.9623 C.ar    1  UNL1        0.0091
     26 C          66.7887   91.7335   12.7150 C.ar    1  UNL1       -0.0017
     27 C          68.2868   91.7897   12.7651 C.ar    1  UNL1        0.0007
     28 C          68.9837   92.0745   14.0624 C.ar    1  UNL1        0.0122
     29 C          68.1825   92.3031   15.3098 C.ar    1  UNL1        0.0679
     30 CL         68.8794   92.5879   16.6072 Cl      1  UNL1       -0.0814
     31 C          66.6844   92.2468   15.2598 C.ar    1  UNL1        0.0658
     32 CL         65.8832   92.4754   16.5071 Cl      1  UNL1       -0.0816
@<TRIPOS>BOND
     1    18    19    2
     2     1    19    1
     3     1     2    1
     4     2     3    1
     5     3     4    1
     6     4     5    1
     7     6     5    1
     8     6     7    1
     9     7     8    1
    10     8     9    1
    11     9    10   ar
    12    10    11   ar
    13    11    12    1
    14    11    13   ar
    15    13    14    1
    16    13    15   ar
    17    15    16   ar
    18    19    20   am
    19    20    24    1
    20    24    25    1
    21    25    26   ar
    22    26    27   ar
    23    27    28   ar
    24    28    29   ar
    25    29    30    1
    26    29    31   ar
    27    31    32    1
    28    20    21    1
    29    21    22    1
    30    22    23    1
    31     6     1    1
    32    16     9   ar
    33    31    25   ar
    34    23    21    1
    35    16     6    1
    36     3    17    1
@<TRIPOS>MOLECULE
*****
 32 36 0 0 0
SMALL
GASTEIGER

@<TRIPOS>ATOM
      1 C          63.9033   86.9023   13.6226 C.3     1  UNL1        0.1211
      2 C          64.5613   87.8597   14.5715 C.3     1  UNL1        0.0804
      3 N          64.3135   89.3333   14.4420 N.3     1  UNL1       -0.2969
      4 C          63.4078   89.8497   13.3636 C.3     1  UNL1        0.0714
      5 C          62.7498   88.8923   12.4146 C.3     1  UNL1        0.0490
      6 C          62.9976   87.4186   12.5442 C.3     1  UNL1        0.1224
      7 O          63.1496   85.9263   12.5506 O.3     1  UNL1       -0.3492
      8 C          62.3180   85.3708   11.4326 C.3     1  UNL1        0.1687
      9 C          61.6520   86.5198   10.7352 C.ar    1  UNL1        0.0079
     10 C          60.7175   86.5771    9.5634 C.ar    1  UNL1        0.0299
     11 C          60.2028   87.9000    9.0784 C.ar    1  UNL1        0.1671
     12 F          59.2682   87.9573    7.9066 F       1  UNL1       -0.2018
     13 C          60.6228   89.1655    9.7654 C.ar    1  UNL1        0.1671
     14 F          60.1082   90.4884    9.2806 F       1  UNL1       -0.2018
     15 C          61.5574   89.1083   10.9373 C.ar    1  UNL1        0.0297
     16 C          62.0720   87.7854   11.4222 C.ar    1  UNL1        0.0033
     17 H          65.2225   89.7733   14.2987 H       1  UNL1        0.1233
     18 O          64.8635   84.6889   12.6588 O.2     1  UNL1       -0.2747
     19 C          64.1511   85.4285   13.7521 C.2     1  UNL1        0.2294
     20 N          63.6864   84.6945   14.9749 N.am    1  UNL1       -0.2769
     21 C          62.9739   85.4342   16.0682 C.3     1  UNL1        0.0758
     22 C          63.0169   86.2730   17.3110 C.3     1  UNL1        0.0215
     23 C          61.6969   85.8767   16.7190 C.3     1  UNL1        0.0215
     24 C          63.9341   83.2208   15.1044 C.3     1  UNL1        0.1209
     25 C          63.0561   82.2459   14.3773 C.ar    1  UNL1        0.0091
     26 C          61.6969   81.9132   14.9175 C.ar    1  UNL1       -0.0017
     27 C          60.8189   80.9383   14.1904 C.ar    1  UNL1        0.0007
     28 C          61.3001   80.2961   12.9231 C.ar    1  UNL1        0.0122
     29 C          62.6593   80.6289   12.3829 C.ar    1  UNL1        0.0679
     30 CL         63.1405   79.9867   11.1156 Cl      1  UNL1       -0.0814
     31 C          63.5373   81.6038   13.1100 C.ar    1  UNL1        0.0658
     32 CL         64.8965   81.9365   12.5698 Cl      1  UNL1       -0.0816
@<TRIPOS>BOND
     1    18    19    2
     2     1    19    1
     3     1     2    1
     4     2     3    1
     5     3     4    1
     6     4     5    1
     7     6     5    1
     8     6     7    1
     9     7     8    1
    10     8     9    1
    11     9    10   ar
    12    10    11   ar
    13    11    12    1
    14    11    13   ar
    15    13    14    1
    16    13    15   ar
    17    15    16   ar
    18    19    20   am
    19    20    24    1
    20    24    25    1
    21    25    26   ar
    22    26    27   ar
    23    27    28   ar
    24    28    29   ar
    25    29    30    1
    26    29    31   ar
    27    31    32    1
    28    20    21    1
    29    21    22    1
    30    22    23    1
    31     6     1    1
    32    16     9   ar
    33    31    25   ar
    34    23    21    1
    35    16     6    1
    36     3    17    1
@<TRIPOS>MOLECULE
*****
 32 36 0 0 0
SMALL
GASTEIGER

@<TRIPOS>ATOM
      1 C          64.2741   90.3815   13.2896 C.3     1  UNL1        0.1211
      2 C          64.8333   90.1848   14.6675 C.3     1  UNL1        0.0804
      3 N          64.7450   88.8409   15.3279 N.3     1  UNL1       -0.2969
      4 C          64.0974   87.6938   14.6104 C.3     1  UNL1        0.0714
      5 C          63.5382   87.8905   13.2326 C.3     1  UNL1        0.0490
      6 C          63.6265   89.2344   12.5722 C.3     1  UNL1        0.1224
      7 O          63.6415   90.5136   11.7889 O.3     1  UNL1       -0.3492
      8 C          62.9784   90.2563   10.4682 C.3     1  UNL1        0.1687
      9 C          62.5535   88.8180   10.4353 C.ar    1  UNL1        0.0079
     10 C          61.8537   88.0019    9.3894 C.ar    1  UNL1        0.0299
     11 C          61.5543   86.5542    9.6436 C.ar    1  UNL1        0.1671
     12 F          60.8545   85.7381    8.5977 F       1  UNL1       -0.2018
     13 C          61.9549   85.9227   10.9439 C.ar    1  UNL1        0.1671
     14 F          61.6556   84.4750   11.1982 F       1  UNL1       -0.2018
     15 C          62.6548   86.7388   11.9899 C.ar    1  UNL1        0.0297
     16 C          62.9541   88.1865   11.7357 C.ar    1  UNL1        0.0033
     17 H          64.2286   88.9736   16.1975 H       1  UNL1        0.1233
     18 O          63.1908   92.2624   11.8617 O.2     1  UNL1       -0.2747
     19 C          64.3624   91.7254   12.6291 C.2     1  UNL1        0.2294
     20 N          65.6224   92.5323   12.7361 N.am    1  UNL1       -0.2769
     21 C          66.7940   91.9953   13.5036 C.3     1  UNL1        0.0758
     22 C          68.2102   91.5021   13.5354 C.3     1  UNL1        0.0215
     23 C          67.4071   91.5584   14.8010 C.3     1  UNL1        0.0215
     24 C          65.7107   93.8762   12.0757 C.3     1  UNL1        0.1209
     25 C          66.4979   94.0392   10.8093 C.ar    1  UNL1        0.0091
     26 C          67.2553   92.8755   10.2420 C.ar    1  UNL1       -0.0017
     27 C          68.0426   93.0385    8.9756 C.ar    1  UNL1        0.0007
     28 C          68.0724   94.3653    8.2766 C.ar    1  UNL1        0.0122
     29 C          67.3149   95.5291    8.8439 C.ar    1  UNL1        0.0679
     30 CL         67.3447   96.8559    8.1449 Cl      1  UNL1       -0.0814
     31 C          66.5277   95.3661   10.1103 C.ar    1  UNL1        0.0658
     32 CL         65.7703   96.5299   10.6777 Cl      1  UNL1       -0.0816
@<TRIPOS>BOND
     1    18    19    2
     2     1    19    1
     3     1     2    1
     4     2     3    1
     5     3     4    1
     6     4     5    1
     7     6     5    1
     8     6     7    1
     9     7     8    1
    10     8     9    1
    11     9    10   ar
    12    10    11   ar
    13    11    12    1
    14    11    13   ar
    15    13    14    1
    16    13    15   ar
    17    15    16   ar
    18    19    20   am
    19    20    24    1
    20    24    25    1
    21    25    26   ar
    22    26    27   ar
    23    27    28   ar
    24    28    29   ar
    25    29    30    1
    26    29    31   ar
    27    31    32    1
    28    20    21    1
    29    21    22    1
    30    22    23    1
    31     6     1    1
    32    16     9   ar
    33    31    25   ar
    34    23    21    1
    35    16     6    1
    36     3    17    1
@<TRIPOS>MOLECULE
*****
 32 36 0 0 0
SMALL
GASTEIGER

@<TRIPOS>ATOM
      1 C          63.5664   90.5615   14.3443 C.3     1  UNL1        0.1211
      2 C          63.5827   91.4563   15.5480 C.3     1  UNL1        0.0804
      3 N          63.5832   90.8613   16.9249 N.3     1  UNL1       -0.2969
      4 C          63.5674   89.3714   17.0981 C.3     1  UNL1        0.0714
      5 C          63.5511   88.4766   15.8944 C.3     1  UNL1        0.0490
      6 C          63.5506   89.0716   14.5175 C.3     1  UNL1        0.1224
      7 O          63.5482   89.5194   13.0858 O.3     1  UNL1       -0.3492
      8 C          63.5299   88.2964   12.2176 C.3     1  UNL1        0.1687
      9 C          63.5211   87.0926   13.1125 C.ar    1  UNL1        0.0079
     10 C          63.5030   85.6223   12.8169 C.ar    1  UNL1        0.0299
     11 C          63.4977   84.6308   13.9426 C.ar    1  UNL1        0.1671
     12 F          63.4797   83.1605   13.6469 F       1  UNL1       -0.2018
     13 C          63.5105   85.1099   15.3639 C.ar    1  UNL1        0.1671
     14 F          63.5053   84.1186   16.4896 F       1  UNL1       -0.2018
     15 C          63.5286   86.5804   15.6597 C.ar    1  UNL1        0.0297
     16 C          63.5338   87.5718   14.5340 C.ar    1  UNL1        0.0033
     17 H          62.7569   91.2220   17.4018 H       1  UNL1        0.1233
     18 O          62.3880   90.9506   12.0617 O.2     1  UNL1       -0.2747
     19 C          63.5659   91.1565   12.9673 C.2     1  UNL1        0.2294
     20 N          64.7434   91.9574   12.4960 N.am    1  UNL1       -0.2769
     21 C          65.9213   92.1633   13.4016 C.3     1  UNL1        0.0758
     22 C          67.0818   91.6049   14.1708 C.3     1  UNL1        0.0215
     23 C          66.8011   93.0781   14.2010 C.3     1  UNL1        0.0215
     24 C          64.7429   92.5524   11.1191 C.3     1  UNL1        0.1209
     25 C          66.0349   92.9726   10.4832 C.ar    1  UNL1        0.0091
     26 C          67.1249   91.9660   10.2634 C.ar    1  UNL1       -0.0017
     27 C          68.4168   92.3862    9.6275 C.ar    1  UNL1        0.0007
     28 C          68.6187   93.8130    9.2114 C.ar    1  UNL1        0.0122
     29 C          67.5286   94.8198    9.4311 C.ar    1  UNL1        0.0679
     30 CL         67.7305   96.2467    9.0150 Cl      1  UNL1       -0.0814
     31 C          66.2367   94.3996   10.0670 C.ar    1  UNL1        0.0658
     32 CL         65.1466   95.4063   10.2868 Cl      1  UNL1       -0.0816
@<TRIPOS>BOND
     1    18    19    2
     2     1    19    1
     3     1     2    1
     4     2     3    1
     5     3     4    1
     6     4     5    1
     7     6     5    1
     8     6     7    1
     9     7     8    1
    10     8     9    1
    11     9    10   ar
    12    10    11   ar
    13    11    12    1
    14    11    13   ar
    15    13    14    1
    16    13    15   ar
    17    15    16   ar
    18    19    20   am
    19    20    24    1
    20    24    25    1
    21    25    26   ar
    22    26    27   ar
    23    27    28   ar
    24    28    29   ar
    25    29    30    1
    26    29    31   ar
    27    31    32    1
    28    20    21    1
    29    21    22    1
    30    22    23    1
    31     6     1    1
    32    16     9   ar
    33    31    25   ar
    34    23    21    1
    35    16     6    1
    36     3    17    1
@<TRIPOS>MOLECULE
*****
 32 36 0 0 0
SMALL
GASTEIGER

@<TRIPOS>ATOM
      1 C          63.0629   88.9212   11.9209 C.3     1  UNL1        0.1211
      2 C          62.2054   88.9793   10.6915 C.3     1  UNL1        0.0804
      3 N          62.1715   90.2266    9.8590 N.3     1  UNL1       -0.2969
      4 C          62.9951   91.4158   10.2559 C.3     1  UNL1        0.0714
      5 C          63.8526   91.3577   11.4852 C.3     1  UNL1        0.0490
      6 C          63.8865   90.1104   12.3177 C.3     1  UNL1        0.1224
      7 O          64.0217   88.9381   13.2438 O.3     1  UNL1       -0.3492
      8 C          64.9781   89.3176   14.3353 C.3     1  UNL1        0.1687
      9 C          65.4341   90.7243   14.0838 C.ar    1  UNL1        0.0079
     10 C          66.3764   91.6224   14.8290 C.ar    1  UNL1        0.0299
     11 C          66.6441   93.0105   14.3274 C.ar    1  UNL1        0.1671
     12 F          67.5864   93.9085   15.0726 F       1  UNL1       -0.2018
     13 C          65.9695   93.5004   13.0805 C.ar    1  UNL1        0.1671
     14 F          66.2371   94.8885   12.5788 F       1  UNL1       -0.2018
     15 C          65.0271   92.6023   12.3351 C.ar    1  UNL1        0.0297
     16 C          64.7594   91.2143   12.8368 C.ar    1  UNL1        0.0033
     17 H          61.2002   90.5367    9.8327 H       1  UNL1        0.1233
     18 O          63.5440   87.7387   14.1837 O.2     1  UNL1       -0.2747
     19 C          63.0968   87.6739   12.7534 C.2     1  UNL1        0.2294
     20 N          62.6835   86.3617   12.1556 N.am    1  UNL1       -0.2769
     21 C          62.2363   86.2968   10.7252 C.3     1  UNL1        0.0758
     22 C          62.5597   86.3206    9.2608 C.3     1  UNL1        0.0215
     23 C          61.1383   86.1607    9.7124 C.3     1  UNL1        0.0215
     24 C          62.7174   85.1144   12.9881 C.3     1  UNL1        0.1209
     25 C          62.9538   83.7841   12.3367 C.ar    1  UNL1        0.0091
     26 C          63.6241   83.7137   10.9966 C.ar    1  UNL1       -0.0017
     27 C          63.8605   82.3834   10.3452 C.ar    1  UNL1        0.0007
     28 C          63.4266   81.1234   11.0338 C.ar    1  UNL1        0.0122
     29 C          62.7563   81.1937   12.3739 C.ar    1  UNL1        0.0679
     30 CL         62.3225   79.9338   13.0625 Cl      1  UNL1       -0.0814
     31 C          62.5199   82.5241   13.0253 C.ar    1  UNL1        0.0658
     32 CL         61.8497   82.5944   14.3654 Cl      1  UNL1       -0.0816
@<TRIPOS>BOND
     1    18    19    2
     2     1    19    1
     3     1     2    1
     4     2     3    1
     5     3     4    1
     6     4     5    1
     7     6     5    1
     8     6     7    1
     9     7     8    1
    10     8     9    1
    11     9    10   ar
    12    10    11   ar
    13    11    12    1
    14    11    13   ar
    15    13    14    1
    16    13    15   ar
    17    15    16   ar
    18    19    20   am
    19    20    24    1
    20    24    25    1
    21    25    26   ar
    22    26    27   ar
    23    27    28   ar
    24    28    29   ar
    25    29    30    1
    26    29    31   ar
    27    31    32    1
    28    20    21    1
    29    21    22    1
    30    22    23    1
    31     6     1    1
    32    16     9   ar
    33    31    25   ar
    34    23    21    1
    35    16     6    1
    36     3    17    1
@<TRIPOS>MOLECULE
*****
 32 36 0 0 0
SMALL
GASTEIGER

@<TRIPOS>ATOM
      1 C          62.1883   89.7830   12.7513 C.3     1  UNL1        0.1211
      2 C          61.7718   89.2454   14.0883 C.3     1  UNL1        0.0804
      3 N          62.5009   89.6713   15.3280 N.3     1  UNL1       -0.2969
      4 C          63.6464   90.6348   15.2308 C.3     1  UNL1        0.0714
      5 C          64.0629   91.1723   13.8938 C.3     1  UNL1        0.0490
      6 C          63.3338   90.7464   12.6540 C.3     1  UNL1        0.1224
      7 O          62.7030   90.4134   11.3344 O.3     1  UNL1       -0.3492
      8 C          63.4335   91.1726   10.2667 C.3     1  UNL1        0.1687
      9 C          64.5159   91.9748   10.9263 C.ar    1  UNL1        0.0079
     10 C          65.5495   92.9109   10.3742 C.ar    1  UNL1        0.0299
     11 C          66.5216   93.5839   11.2974 C.ar    1  UNL1        0.1671
     12 F          67.5553   94.5200   10.7452 F       1  UNL1       -0.2018
     13 C          66.4600   93.3205   12.7728 C.ar    1  UNL1        0.1671
     14 F          67.4321   93.9933   13.6960 F       1  UNL1       -0.2018
     15 C          65.4263   92.3842   13.3250 C.ar    1  UNL1        0.0297
     16 C          64.4542   91.7114   12.4018 C.ar    1  UNL1        0.0033
     17 H          62.8656   88.8230   15.7612 H       1  UNL1        0.1233
     18 O          60.6508   90.3551   10.7366 O.2     1  UNL1       -0.2747
     19 C          61.4592   89.3571   11.5114 C.2     1  UNL1        0.2294
     20 N          61.5385   87.9331   11.0466 N.am    1  UNL1       -0.2769
     21 C          62.3470   86.9351   11.8215 C.3     1  UNL1        0.0758
     22 C          63.5019   86.6199   12.7252 C.3     1  UNL1        0.0215
     23 C          62.5922   85.5217   12.2600 C.3     1  UNL1        0.0215
     24 C          60.8095   87.5072    9.8068 C.3     1  UNL1        0.1209
     25 C          61.4451   86.5322    8.8606 C.ar    1  UNL1        0.0091
     26 C          62.8912   86.1670    9.0194 C.ar    1  UNL1       -0.0017
     27 C          63.5269   85.1920    8.0731 C.ar    1  UNL1        0.0007
     28 C          62.7163   84.5822    6.9681 C.ar    1  UNL1        0.0122
     29 C          61.2701   84.9474    6.8092 C.ar    1  UNL1        0.0679
     30 CL         60.4596   84.3376    5.7042 Cl      1  UNL1       -0.0814
     31 C          60.6345   85.9224    7.7555 C.ar    1  UNL1        0.0658
     32 CL         59.1884   86.2876    7.5967 Cl      1  UNL1       -0.0816
@<TRIPOS>BOND
     1    18    19    2
     2     1    19    1
     3     1     2    1
     4     2     3    1
     5     3     4    1
     6     4     5    1
     7     6     5    1
     8     6     7    1
     9     7     8    1
    10     8     9    1
    11     9    10   ar
    12    10    11   ar
    13    11    12    1
    14    11    13   ar
    15    13    14    1
    16    13    15   ar
    17    15    16   ar
    18    19    20   am
    19    20    24    1
    20    24    25    1
    21    25    26   ar
    22    26    27   ar
    23    27    28   ar
    24    28    29   ar
    25    29    30    1
    26    29    31   ar
    27    31    32    1
    28    20    21    1
    29    21    22    1
    30    22    23    1
    31     6     1    1
    32    16     9   ar
    33    31    25   ar
    34    23    21    1
    35    16     6    1
    36     3    17    1
