@<TRIPOS>MOLECULE
*****
 15 16 0 0 0
SMALL
GASTEIGER

@<TRIPOS>ATOM
      1 C          65.2324   91.3662   14.4074 C.ar    1  UNL1        0.0230
      2 C          66.6605   91.4249   14.8626 C.ar    1  UNL1        0.0040
      3 C          67.4774   92.0144   13.7513 C.ar    1  UNL1        0.0067
      4 C          66.5543   92.3200   12.6092 C.ar    1  UNL1        0.0307
      5 S          65.1668   91.9194   13.0147 S.2     1  UNL1       -0.0899
      6 C          66.9493   92.9208   11.2927 C.ar    1  UNL1        0.0252
      7 C          67.8842   92.1821   10.3815 C.ar    1  UNL1        0.0036
      8 C          68.2792   92.7829    9.0651 C.ar    1  UNL1        0.0207
      9 C          67.7392   94.1223    8.6598 C.ar    1  UNL1        0.0989
     10 N          66.8043   94.8610    9.5710 N.ar    1  UNL1       -0.2423
     11 C          66.4094   94.2603   10.8874 C.ar    1  UNL1        0.0993
     12 N          63.6310   91.5670   16.4433 N.3     1  UNL1       -0.3170
     13 C          64.0735   90.8457   15.2048 C.3     1  UNL1        0.0987
     14 H          62.8365   91.0782   16.8559 H       1  UNL1        0.1192
     15 H          63.3563   92.5194   16.2022 H       1  UNL1        0.1192
@<TRIPOS>BOND
     1    12    13    1
     2    13     1    1
     3     1     2   ar
     4     2     3   ar
     5     3     4   ar
     6     4     6    1
     7     6     7   ar
     8     7     8   ar
     9     8     9   ar
    10     9    10   ar
    11    10    11   ar
    12     4     5   ar
    13     5     1   ar
    14    11     6   ar
    15    12    14    1
    16    12    15    1
@<TRIPOS>MOLECULE
*****
 15 16 0 0 0
SMALL
GASTEIGER

@<TRIPOS>ATOM
      1 C          67.3775   94.2977    9.1190 C.ar    1  UNL1        0.0230
      2 C          68.2234   93.0670    8.9776 C.ar    1  UNL1        0.0040
      3 C          67.9479   92.1775   10.1535 C.ar    1  UNL1        0.0067
      4 C          66.9317   92.8585   11.0217 C.ar    1  UNL1        0.0307
      5 S          66.5792   94.1687   10.3823 S.2     1  UNL1       -0.0899
      6 C          66.3671   92.3230   12.3042 C.ar    1  UNL1        0.0252
      7 C          67.2758   92.0408   13.4636 C.ar    1  UNL1        0.0036
      8 C          66.7112   91.5054   14.7460 C.ar    1  UNL1        0.0207
      9 C          65.2379   91.2522   14.8689 C.ar    1  UNL1        0.0989
     10 N          64.3291   91.5344   13.7094 N.ar    1  UNL1       -0.2423
     11 C          64.8937   92.0698   12.4271 C.ar    1  UNL1        0.0993
     12 N          67.8521   96.7969    8.5910 N.3     1  UNL1       -0.3170
     13 C          67.3370   95.4542    8.1646 C.3     1  UNL1        0.0987
     14 H          67.7483   97.4603    7.8233 H       1  UNL1        0.1192
     15 H          68.8377   96.7189    8.8420 H       1  UNL1        0.1192
@<TRIPOS>BOND
     1    12    13    1
     2    13     1    1
     3     1     2   ar
     4     2     3   ar
     5     3     4   ar
     6     4     6    1
     7     6     7   ar
     8     7     8   ar
     9     8     9   ar
    10     9    10   ar
    11    10    11   ar
    12     4     5   ar
    13     5     1   ar
    14    11     6   ar
    15    12    14    1
    16    12    15    1
@<TRIPOS>MOLECULE
*****
 15 16 0 0 0
SMALL
GASTEIGER

@<TRIPOS>ATOM
      1 C          60.4758   87.3949    8.9813 C.ar    1  UNL1        0.0230
      2 C          61.1817   88.3233    9.9246 C.ar    1  UNL1        0.0040
      3 C          62.1325   87.5093   10.7513 C.ar    1  UNL1        0.0067
      4 C          62.0142   86.0778   10.3189 C.ar    1  UNL1        0.0307
      5 S          60.9904   86.0071    9.2250 S.2     1  UNL1       -0.0899
      6 C          62.7847   84.9203   10.8817 C.ar    1  UNL1        0.0252
      7 C          63.5430   84.0072    9.9645 C.ar    1  UNL1        0.0036
      8 C          64.3133   82.8497   10.5273 C.ar    1  UNL1        0.0207
      9 C          64.3254   82.6053   12.0072 C.ar    1  UNL1        0.0989
     10 N          63.5671   83.5184   12.9244 N.ar    1  UNL1       -0.2423
     11 C          62.7967   84.6759   12.3616 C.ar    1  UNL1        0.0993
     12 N          58.4390   86.7741    7.4927 N.3     1  UNL1       -0.3170
     13 C          59.4377   87.7856    7.9715 C.3     1  UNL1        0.0987
     14 H          57.8137   87.2085    6.8139 H       1  UNL1        0.1192
     15 H          57.8955   86.4315    8.2850 H       1  UNL1        0.1192
@<TRIPOS>BOND
     1    12    13    1
     2    13     1    1
     3     1     2   ar
     4     2     3   ar
     5     3     4   ar
     6     4     6    1
     7     6     7   ar
     8     7     8   ar
     9     8     9   ar
    10     9    10   ar
    11    10    11   ar
    12     4     5   ar
    13     5     1   ar
    14    11     6   ar
    15    12    14    1
    16    12    15    1
@<TRIPOS>MOLECULE
*****
 15 16 0 0 0
SMALL
GASTEIGER

@<TRIPOS>ATOM
      1 C          63.5200   90.2277   12.4105 C.ar    1  UNL1        0.0230
      2 C          63.5873   91.2441   11.3093 C.ar    1  UNL1        0.0040
      3 C          62.8406   90.6983   10.1285 C.ar    1  UNL1        0.0067
      4 C          62.3119   89.3445   10.4998 C.ar    1  UNL1        0.0307
      5 S          62.7318   89.0537   11.9101 S.2     1  UNL1       -0.0899
      6 C          61.5049   88.4403    9.6158 C.ar    1  UNL1        0.0252
      7 C          61.9304   87.0167    9.4109 C.ar    1  UNL1        0.0036
      8 C          61.1234   86.1126    8.5270 C.ar    1  UNL1        0.0207
      9 C          59.8909   86.6321    7.8480 C.ar    1  UNL1        0.0989
     10 N          59.4654   88.0558    8.0529 N.ar    1  UNL1       -0.2423
     11 C          60.2724   88.9599    8.9368 C.ar    1  UNL1        0.0993
     12 N          63.4956   91.2516   14.7982 N.3     1  UNL1       -0.3170
     13 C          64.1334   90.3618   13.7728 C.3     1  UNL1        0.0987
     14 H          64.0411   91.2232   15.6595 H       1  UNL1        0.1192
     15 H          62.5466   90.9282   14.9859 H       1  UNL1        0.1192
@<TRIPOS>BOND
     1    12    13    1
     2    13     1    1
     3     1     2   ar
     4     2     3   ar
     5     3     4   ar
     6     4     6    1
     7     6     7   ar
     8     7     8   ar
     9     8     9   ar
    10     9    10   ar
    11    10    11   ar
    12     4     5   ar
    13     5     1   ar
    14    11     6   ar
    15    12    14    1
    16    12    15    1
@<TRIPOS>MOLECULE
*****
 15 16 0 0 0
SMALL
GASTEIGER

@<TRIPOS>ATOM
      1 C          60.5819   87.7306    9.1584 C.ar    1  UNL1        0.0230
      2 C          61.1317   86.4734    9.7643 C.ar    1  UNL1        0.0040
      3 C          62.0581   86.8623   10.8781 C.ar    1  UNL1        0.0067
      4 C          62.0808   88.3599   10.9606 C.ar    1  UNL1        0.0307
      5 S          61.1685   88.8965    9.8977 S.2     1  UNL1       -0.0899
      6 C          62.8762   89.1773   11.9349 C.ar    1  UNL1        0.0252
      7 C          63.5630   88.5095   13.0892 C.ar    1  UNL1        0.0036
      8 C          64.3583   89.3269   14.0634 C.ar    1  UNL1        0.0207
      9 C          64.4670   90.8121   13.8833 C.ar    1  UNL1        0.0989
     10 N          63.7803   91.4799   12.7290 N.ar    1  UNL1       -0.2423
     11 C          62.9849   90.6625   11.7548 C.ar    1  UNL1        0.0993
     12 N          58.5453   86.7678    7.8641 N.3     1  UNL1       -0.3170
     13 C          59.6153   87.8083    8.0140 C.3     1  UNL1        0.0987
     14 H          57.9832   86.9747    7.0384 H       1  UNL1        0.1192
     15 H          57.9486   86.7721    8.6914 H       1  UNL1        0.1192
@<TRIPOS>BOND
     1    12    13    1
     2    13     1    1
     3     1     2   ar
     4     2     3   ar
     5     3     4   ar
     6     4     6    1
     7     6     7   ar
     8     7     8   ar
     9     8     9   ar
    10     9    10   ar
    11    10    11   ar
    12     4     5   ar
    13     5     1   ar
    14    11     6   ar
    15    12    14    1
    16    12    15    1
@<TRIPOS>MOLECULE
*****
 15 16 0 0 0
SMALL
GASTEIGER

@<TRIPOS>ATOM
      1 C          60.5504   88.5824   10.0575 C.ar    1  UNL1        0.0230
      2 C          59.9857   87.7160    8.9709 C.ar    1  UNL1        0.0040
      3 C          60.6371   86.3683    9.0670 C.ar    1  UNL1        0.0067
      4 C          61.6045   86.4017   10.2129 C.ar    1  UNL1        0.0307
      5 S          61.5509   87.7701   10.8251 S.2     1  UNL1       -0.0899
      6 C          62.4729   85.2661   10.6670 C.ar    1  UNL1        0.0252
      7 C          63.2217   84.4451    9.6594 C.ar    1  UNL1        0.0036
      8 C          64.0901   83.3095   10.1134 C.ar    1  UNL1        0.0207
      9 C          64.2098   82.9949   11.5752 C.ar    1  UNL1        0.0989
     10 N          63.4610   83.8158   12.5828 N.ar    1  UNL1       -0.2423
     11 C          62.5926   84.9514   12.1287 C.ar    1  UNL1        0.0993
     12 N          59.8159   90.4396   11.7192 N.3     1  UNL1       -0.3170
     13 C          60.1797   90.0103   10.3288 C.3     1  UNL1        0.0987
     14 H          59.5937   91.4351   11.7205 H       1  UNL1        0.1192
     15 H          60.6022   90.2659   12.3453 H       1  UNL1        0.1192
@<TRIPOS>BOND
     1    12    13    1
     2    13     1    1
     3     1     2   ar
     4     2     3   ar
     5     3     4   ar
     6     4     6    1
     7     6     7   ar
     8     7     8   ar
     9     8     9   ar
    10     9    10   ar
    11    10    11   ar
    12     4     5   ar
    13     5     1   ar
    14    11     6   ar
    15    12    14    1
    16    12    15    1
@<TRIPOS>MOLECULE
*****
 15 16 0 0 0
SMALL
GASTEIGER

@<TRIPOS>ATOM
      1 C          61.1531   86.3678    9.0239 C.ar    1  UNL1        0.0230
      2 C          62.2707   85.6634    8.3133 C.ar    1  UNL1        0.0040
      3 C          63.0690   84.9110    9.3363 C.ar    1  UNL1        0.0067
      4 C          62.4449   85.1504   10.6792 C.ar    1  UNL1        0.0307
      5 S          61.2608   86.0508   10.4861 S.2     1  UNL1       -0.0899
      6 C          62.9212   84.5881   11.9857 C.ar    1  UNL1        0.0252
      7 C          63.4538   85.5046   13.0470 C.ar    1  UNL1        0.0036
      8 C          63.9301   84.9423   14.3535 C.ar    1  UNL1        0.0207
      9 C          63.8739   83.4635   14.5986 C.ar    1  UNL1        0.0989
     10 N          63.3413   82.5471   13.5373 N.ar    1  UNL1       -0.2423
     11 C          62.8650   83.1094   12.2309 C.ar    1  UNL1        0.0993
     12 N          58.7630   86.6694    8.0511 N.3     1  UNL1       -0.3170
     13 C          60.1109   87.2368    8.3846 C.3     1  UNL1        0.0987
     14 H          58.1849   87.3940    7.6257 H       1  UNL1        0.1192
     15 H          58.3149   86.3339    8.9038 H       1  UNL1        0.1192
@<TRIPOS>BOND
     1    12    13    1
     2    13     1    1
     3     1     2   ar
     4     2     3   ar
     5     3     4   ar
     6     4     6    1
     7     6     7   ar
     8     7     8   ar
     9     8     9   ar
    10     9    10   ar
    11    10    11   ar
    12     4     5   ar
    13     5     1   ar
    14    11     6   ar
    15    12    14    1
    16    12    15    1
@<TRIPOS>MOLECULE
*****
 15 16 0 0 0
SMALL
GASTEIGER

@<TRIPOS>ATOM
      1 C          63.6814   83.5440   12.9189 C.ar    1  UNL1        0.0230
      2 C          64.2388   83.0306   11.6244 C.ar    1  UNL1        0.0040
      3 C          63.5997   83.8005   10.5069 C.ar    1  UNL1        0.0067
      4 C          62.6473   84.7896   11.1107 C.ar    1  UNL1        0.0307
      5 S          62.6978   84.6311   12.6015 S.2     1  UNL1       -0.0899
      6 C          61.7942   85.7659   10.3562 C.ar    1  UNL1        0.0252
      7 C          61.7362   85.7100    8.8584 C.ar    1  UNL1        0.0036
      8 C          60.8831   86.6863    8.1040 C.ar    1  UNL1        0.0207
      9 C          60.0880   87.7183    8.8475 C.ar    1  UNL1        0.0989
     10 N          60.1460   87.7742   10.3453 N.ar    1  UNL1       -0.2423
     11 C          60.9991   86.7979   11.0997 C.ar    1  UNL1        0.0993
     12 N          62.9651   82.6797   15.2620 N.3     1  UNL1       -0.3170
     13 C          64.0440   83.0559   14.2902 C.3     1  UNL1        0.0987
     14 H          63.3883   82.3723   16.1377 H       1  UNL1        0.1192
     15 H          62.4045   81.9225   14.8711 H       1  UNL1        0.1192
@<TRIPOS>BOND
     1    12    13    1
     2    13     1    1
     3     1     2   ar
     4     2     3   ar
     5     3     4   ar
     6     4     6    1
     7     6     7   ar
     8     7     8   ar
     9     8     9   ar
    10     9    10   ar
    11    10    11   ar
    12     4     5   ar
    13     5     1   ar
    14    11     6   ar
    15    12    14    1
    16    12    15    1
@<TRIPOS>MOLECULE
*****
 15 16 0 0 0
SMALL
GASTEIGER

@<TRIPOS>ATOM
      1 C          61.9439   86.6321    9.7528 C.ar    1  UNL1        0.0230
      2 C          62.7285   85.8557    8.7371 C.ar    1  UNL1        0.0040
      3 C          63.2234   84.6012    9.3938 C.ar    1  UNL1        0.0067
      4 C          62.7447   84.6022   10.8153 C.ar    1  UNL1        0.0307
      5 S          61.9539   85.8574   11.0372 S.2     1  UNL1       -0.0899
      6 C          63.0102   83.5354   11.8359 C.ar    1  UNL1        0.0252
      7 C          62.7028   82.1017   11.5195 C.ar    1  UNL1        0.0036
      8 C          62.9683   81.0349   12.5400 C.ar    1  UNL1        0.0207
      9 C          63.5411   81.4018   13.8769 C.ar    1  UNL1        0.0989
     10 N          63.8485   82.8355   14.1933 N.ar    1  UNL1       -0.2423
     11 C          63.5830   83.9022   13.1728 C.ar    1  UNL1        0.0993
     12 N          60.0418   88.3121   10.3095 N.3     1  UNL1       -0.3170
     13 C          61.2679   87.9515    9.5242 C.3     1  UNL1        0.0987
     14 H          59.7174   89.2371   10.0276 H       1  UNL1        0.1192
     15 H          60.2652   88.3188   11.3047 H       1  UNL1        0.1192
@<TRIPOS>BOND
     1    12    13    1
     2    13     1    1
     3     1     2   ar
     4     2     3   ar
     5     3     4   ar
     6     4     6    1
     7     6     7   ar
     8     7     8   ar
     9     8     9   ar
    10     9    10   ar
    11    10    11   ar
    12     4     5   ar
    13     5     1   ar
    14    11     6   ar
    15    12    14    1
    16    12    15    1
