@<TRIPOS>MOLECULE
*****
 47 50 0 0 0
SMALL
GASTEIGER

@<TRIPOS>ATOM
      1 N          63.4071   89.9197   11.6579 N.ar    1  UNL1       -0.2470
      2 C          63.2331   88.8712   12.7163 C.ar    1  UNL1        0.2657
      3 O          62.4919   87.6052   12.4032 O.2     1  UNL1       -0.2668
      4 C          63.8002   89.0886   14.0878 C.ar    1  UNL1        0.0759
      5 C          64.5414   90.3546   14.4009 C.ar    1  UNL1        0.0848
      6 N          64.7154   91.4031   13.3426 N.ar    1  UNL1       -0.2755
      7 C          64.1483   91.1857   11.9711 C.ar    1  UNL1        0.3341
      8 O          64.3223   92.2343   10.9126 O.2     1  UNL1       -0.2462
      9 C          63.6262   88.0401   15.1463 C.ar    1  UNL1        0.0366
     10 C          63.0303   88.4057   16.4734 C.ar    1  UNL1        0.0026
     11 C          62.8563   87.3572   17.5319 C.ar    1  UNL1        0.0033
     12 C          63.2782   85.9430   17.2632 C.ar    1  UNL1        0.0392
     13 C          63.8740   85.5773   15.9361 C.ar    1  UNL1        0.1658
     14 C          64.0480   86.6259   14.8776 C.ar    1  UNL1        0.1739
     15 F          64.6439   86.2603   13.5505 F       1  UNL1       -0.2010
     16 O          64.2959   84.1632   15.6675 O.3     1  UNL1       -0.4732
     17 C          63.6701   83.3950   14.5413 C.3     1  UNL1        0.2055
     18 C          62.3291   82.7492   14.7281 C.3     1  UNL1        0.0473
     19 C          61.9060   81.6256   13.8289 C.3     1  UNL1        0.0042
     20 C          62.8998   80.9937   12.9000 C.3     1  UNL1        0.0060
     21 C          62.9238   81.3810   11.4510 C.3     1  UNL1        0.0417
     22 C          63.5324   82.6870   11.0338 C.2     1  UNL1        0.0503
     23 O          64.9046   82.7157   10.4288 O.co2   1  UNL1       -0.5492
     24 O          62.7686   83.9643   11.2216 O.co2   1  UNL1       -0.5492
     25 C          62.8400   89.7023   10.2864 C.3     1  UNL1        0.1334
     26 N          60.3919   90.4148   10.7855 N.3     1  UNL1       -0.3172
     27 C          61.3650   89.4955   10.1088 C.3     1  UNL1        0.0968
     28 H          60.9031   91.1166   11.3208 H       1  UNL1        0.1192
     29 H          59.7955   89.8761   11.4135 H       1  UNL1        0.1192
     30 C          60.8630   88.3693    9.2545 C.ar    1  UNL1       -0.0063
     31 C          59.6876   88.5823    8.3474 C.ar    1  UNL1       -0.0029
     32 C          59.1857   87.4562    7.4932 C.ar    1  UNL1       -0.0003
     33 C          59.8592   86.1169    7.5461 C.ar    1  UNL1       -0.0000
     34 C          61.0347   85.9039    8.4531 C.ar    1  UNL1       -0.0003
     35 C          61.5366   87.0301    9.3074 C.ar    1  UNL1       -0.0029
     36 C          65.4565   92.6691   13.6557 C.3     1  UNL1        0.1394
     37 C          66.7703   92.6102   14.3770 C.ar    1  UNL1        0.0319
     38 C          66.8127   92.7442   15.8705 C.ar    1  UNL1        0.1379
     39 F          65.5411   92.9372   16.6425 F       1  UNL1       -0.2044
     40 C          68.1265   92.6853   16.5918 C.ar    1  UNL1        0.0294
     41 C          69.3980   92.4924   15.8198 C.ar    1  UNL1        0.0022
     42 C          69.3557   92.3583   14.3265 C.ar    1  UNL1        0.0037
     43 C          68.0418   92.4172   13.6050 C.ar    1  UNL1        0.0714
     44 C          67.9996   92.2832   12.1116 C.3     1  UNL1        0.4184
     45 F          67.9573   92.1492   10.6183 F       1  UNL1       -0.1659
     46 F          68.8709   91.0652   12.1963 F       1  UNL1       -0.1659
     47 F          67.1282   93.5012   12.0270 F       1  UNL1       -0.1659
@<TRIPOS>UNITY_ATOM_ATTR
23 1
charge -1
@<TRIPOS>BOND
     1    27    26    1
     2    27    25    1
     3    25     1    1
     4     1     2   ar
     5     2     3    2
     6     2     4   ar
     7     4     9    1
     8     9    10   ar
     9    10    11   ar
    10    11    12   ar
    11    12    13   ar
    12    13    16    1
    13    16    17    1
    14    17    18    1
    15    18    19    1
    16    19    20    1
    17    20    21    1
    18    21    22    1
    19    22    23   ar
    20    22    24   ar
    21    13    14   ar
    22    14    15    1
    23     4     5   ar
    24     5     6   ar
    25     6    36    1
    26    36    37    1
    27    37    38   ar
    28    38    39    1
    29    38    40   ar
    30    40    41   ar
    31    41    42   ar
    32    42    43   ar
    33    43    44    1
    34    44    45    1
    35    44    46    1
    36    44    47    1
    37     6     7   ar
    38     7     8    2
    39    27    30    1
    40    30    31   ar
    41    31    32   ar
    42    32    33   ar
    43    33    34   ar
    44    34    35   ar
    45     7     1   ar
    46    35    30   ar
    47    14     9   ar
    48    43    37   ar
    49    26    28    1
    50    26    29    1
@<TRIPOS>MOLECULE
*****
 47 50 0 0 0
SMALL
GASTEIGER

@<TRIPOS>ATOM
      1 N          63.2116   90.6450   11.1195 N.ar    1  UNL1       -0.2470
      2 C          63.0385   89.7710   12.3262 C.ar    1  UNL1        0.2657
      3 O          62.0655   88.6299   12.2925 O.2     1  UNL1       -0.2668
      4 C          63.8383   90.0383   13.5667 C.ar    1  UNL1        0.0759
      5 C          64.8112   91.1795   13.6005 C.ar    1  UNL1        0.0848
      6 N          64.9843   92.0534   12.3938 N.ar    1  UNL1       -0.2755
      7 C          64.1845   91.7861   11.1533 C.ar    1  UNL1        0.3341
      8 O          64.3576   92.6601    9.9464 O.2     1  UNL1       -0.2462
      9 C          63.6652   89.1644   14.7735 C.ar    1  UNL1        0.0366
     10 C          63.1910   89.7574   16.0672 C.ar    1  UNL1        0.0026
     11 C          63.0179   88.8835   17.2740 C.ar    1  UNL1        0.0033
     12 C          63.3190   87.4165   17.1871 C.ar    1  UNL1        0.0392
     13 C          63.7931   86.8235   15.8935 C.ar    1  UNL1        0.1658
     14 C          63.9662   87.6975   14.6867 C.ar    1  UNL1        0.1739
     15 F          64.4403   87.1045   13.3930 F       1  UNL1       -0.2010
     16 O          64.0941   85.3566   15.8066 O.3     1  UNL1       -0.4732
     17 C          62.9907   84.3799   15.5267 C.3     1  UNL1        0.2055
     18 C          62.4121   84.2773   14.1465 C.3     1  UNL1        0.0473
     19 C          63.2852   83.8742   12.9953 C.3     1  UNL1        0.0042
     20 C          62.7398   82.9885   11.9146 C.3     1  UNL1        0.0060
     21 C          62.6247   81.5104   12.1431 C.3     1  UNL1        0.0417
     22 C          62.3402   80.9840   13.5185 C.2     1  UNL1        0.0503
     23 O          63.4663   80.5056   14.3862 O.co2   1  UNL1       -0.5492
     24 O          60.9295   80.9359   14.0263 O.co2   1  UNL1       -0.5492
     25 C          62.4118   90.3777    9.8789 C.3     1  UNL1        0.1334
     26 N          59.9986   90.3504   10.8410 N.3     1  UNL1       -0.3172
     27 C          61.0615   89.7327    9.9816 C.3     1  UNL1        0.0968
     28 H          60.3638   91.1966   11.2780 H       1  UNL1        0.1192
     29 H          59.7186   89.6879   11.5643 H       1  UNL1        0.1192
     30 C          60.7740   88.4699    9.2247 C.ar    1  UNL1       -0.0063
     31 C          59.5485   88.3730    8.3653 C.ar    1  UNL1       -0.0029
     32 C          59.2611   87.1102    7.6085 C.ar    1  UNL1       -0.0003
     33 C          60.1992   85.9443    7.7112 C.ar    1  UNL1       -0.0000
     34 C          61.4248   86.0412    8.5706 C.ar    1  UNL1       -0.0003
     35 C          61.7121   87.3039    9.3274 C.ar    1  UNL1       -0.0029
     36 C          65.9572   93.1946   12.4275 C.3     1  UNL1        0.1394
     37 C          66.8212   93.4791   11.2348 C.ar    1  UNL1        0.0319
     38 C          67.7993   92.4483   10.7543 C.ar    1  UNL1        0.1379
     39 F          67.9133   91.1330   11.4664 F       1  UNL1       -0.2044
     40 C          68.6634   92.7327    9.5616 C.ar    1  UNL1        0.0294
     41 C          68.5494   94.0480    8.8495 C.ar    1  UNL1        0.0022
     42 C          67.5713   95.0787    9.3300 C.ar    1  UNL1        0.0037
     43 C          66.7072   94.7943   10.5227 C.ar    1  UNL1        0.0714
     44 C          65.7292   95.8251   11.0032 C.3     1  UNL1        0.4184
     45 F          64.7512   96.8558   11.4837 F       1  UNL1       -0.1659
     46 F          64.9280   95.6504    9.7472 F       1  UNL1       -0.1659
     47 F          66.5304   95.9998   12.2592 F       1  UNL1       -0.1659
@<TRIPOS>UNITY_ATOM_ATTR
23 1
charge -1
@<TRIPOS>BOND
     1    27    26    1
     2    27    25    1
     3    25     1    1
     4     1     2   ar
     5     2     3    2
     6     2     4   ar
     7     4     9    1
     8     9    10   ar
     9    10    11   ar
    10    11    12   ar
    11    12    13   ar
    12    13    16    1
    13    16    17    1
    14    17    18    1
    15    18    19    1
    16    19    20    1
    17    20    21    1
    18    21    22    1
    19    22    23   ar
    20    22    24   ar
    21    13    14   ar
    22    14    15    1
    23     4     5   ar
    24     5     6   ar
    25     6    36    1
    26    36    37    1
    27    37    38   ar
    28    38    39    1
    29    38    40   ar
    30    40    41   ar
    31    41    42   ar
    32    42    43   ar
    33    43    44    1
    34    44    45    1
    35    44    46    1
    36    44    47    1
    37     6     7   ar
    38     7     8    2
    39    27    30    1
    40    30    31   ar
    41    31    32   ar
    42    32    33   ar
    43    33    34   ar
    44    34    35   ar
    45     7     1   ar
    46    35    30   ar
    47    14     9   ar
    48    43    37   ar
    49    26    28    1
    50    26    29    1
@<TRIPOS>MOLECULE
*****
 47 50 0 0 0
SMALL
GASTEIGER

@<TRIPOS>ATOM
      1 N          64.8961   91.5736   12.9359 N.ar    1  UNL1       -0.2470
      2 C          64.7140   90.5890   14.0527 C.ar    1  UNL1        0.2657
      3 O          65.4278   90.7928   15.3561 O.2     1  UNL1       -0.2668
      4 C          63.8181   89.4006   13.8661 C.ar    1  UNL1        0.0759
      5 C          63.1042   89.1967   12.5627 C.ar    1  UNL1        0.0848
      6 N          63.2863   90.1813   11.4458 N.ar    1  UNL1       -0.2755
      7 C          64.1823   91.3698   11.6324 C.ar    1  UNL1        0.3341
      8 O          64.3644   92.3544   10.5156 O.2     1  UNL1       -0.2462
      9 C          63.6359   88.4159   14.9829 C.ar    1  UNL1        0.0366
     10 C          63.0674   88.8673   16.2956 C.ar    1  UNL1        0.0026
     11 C          62.8853   87.8828   17.4124 C.ar    1  UNL1        0.0033
     12 C          63.2716   86.4466   17.2166 C.ar    1  UNL1        0.0392
     13 C          63.8401   85.9951   15.9040 C.ar    1  UNL1        0.1658
     14 C          64.0222   86.9798   14.7871 C.ar    1  UNL1        0.1739
     15 F          64.5907   86.5283   13.4745 F       1  UNL1       -0.2010
     16 O          64.2264   84.5590   15.7082 O.3     1  UNL1       -0.4732
     17 C          63.5984   83.7569   14.6072 C.3     1  UNL1        0.2055
     18 C          62.2790   83.0795   14.8315 C.3     1  UNL1        0.0473
     19 C          61.9992   81.7519   14.1919 C.3     1  UNL1        0.0042
     20 C          62.9497   81.1945   13.1742 C.3     1  UNL1        0.0060
     21 C          62.7944   81.5548   11.7264 C.3     1  UNL1        0.0417
     22 C          63.5112   82.7490   11.1696 C.2     1  UNL1        0.0503
     23 O          64.8952   82.5998   10.6108 O.co2   1  UNL1       -0.5492
     24 O          62.8441   84.0925   11.1716 O.co2   1  UNL1       -0.5492
     25 C          65.7921   92.7621   13.1224 C.3     1  UNL1        0.1334
     26 N          68.3214   92.3228   13.5218 N.3     1  UNL1       -0.3172
     27 C          67.2012   92.7269   12.6097 C.3     1  UNL1        0.0968
     28 H          67.9467   92.1077   14.4458 H       1  UNL1        0.1192
     29 H          68.9918   93.0878   13.5965 H       1  UNL1        0.1192
     30 C          67.4903   93.0958   11.1847 C.ar    1  UNL1       -0.0063
     31 C          67.0260   94.4150   10.6425 C.ar    1  UNL1       -0.0029
     32 C          67.3151   94.7838    9.2176 C.ar    1  UNL1       -0.0003
     33 C          68.0685   93.8334    8.3349 C.ar    1  UNL1       -0.0000
     34 C          68.5328   92.5142    8.8772 C.ar    1  UNL1       -0.0003
     35 C          68.2437   92.1454   10.3020 C.ar    1  UNL1       -0.0029
     36 C          62.5725   89.9775   10.1424 C.3     1  UNL1        0.1394
     37 C          61.6816   88.7856    9.9536 C.ar    1  UNL1        0.0319
     38 C          62.2230   87.5370    9.3228 C.ar    1  UNL1        0.1379
     39 F          63.6553   87.4803    8.8808 F       1  UNL1       -0.2044
     40 C          61.3321   86.3451    9.1340 C.ar    1  UNL1        0.0294
     41 C          59.8998   86.4018    9.5759 C.ar    1  UNL1        0.0022
     42 C          59.3584   87.6503   10.2067 C.ar    1  UNL1        0.0037
     43 C          60.2493   88.8423   10.3956 C.ar    1  UNL1        0.0714
     44 C          59.7079   90.0909   11.0264 C.3     1  UNL1        0.4184
     45 F          59.1666   91.3394   11.6572 F       1  UNL1       -0.1659
     46 F          59.8239   89.4569   12.3808 F       1  UNL1       -0.1659
     47 F          59.5920   90.7249    9.6719 F       1  UNL1       -0.1659
@<TRIPOS>UNITY_ATOM_ATTR
23 1
charge -1
@<TRIPOS>BOND
     1    27    26    1
     2    27    25    1
     3    25     1    1
     4     1     2   ar
     5     2     3    2
     6     2     4   ar
     7     4     9    1
     8     9    10   ar
     9    10    11   ar
    10    11    12   ar
    11    12    13   ar
    12    13    16    1
    13    16    17    1
    14    17    18    1
    15    18    19    1
    16    19    20    1
    17    20    21    1
    18    21    22    1
    19    22    23   ar
    20    22    24   ar
    21    13    14   ar
    22    14    15    1
    23     4     5   ar
    24     5     6   ar
    25     6    36    1
    26    36    37    1
    27    37    38   ar
    28    38    39    1
    29    38    40   ar
    30    40    41   ar
    31    41    42   ar
    32    42    43   ar
    33    43    44    1
    34    44    45    1
    35    44    46    1
    36    44    47    1
    37     6     7   ar
    38     7     8    2
    39    27    30    1
    40    30    31   ar
    41    31    32   ar
    42    32    33   ar
    43    33    34   ar
    44    34    35   ar
    45     7     1   ar
    46    35    30   ar
    47    14     9   ar
    48    43    37   ar
    49    26    28    1
    50    26    29    1
@<TRIPOS>MOLECULE
*****
 47 50 0 0 0
SMALL
GASTEIGER

@<TRIPOS>ATOM
      1 N          63.5086   86.8690   13.0215 N.ar    1  UNL1       -0.2470
      2 C          62.6668   86.6362   11.8020 C.ar    1  UNL1        0.2657
      3 O          62.3680   85.2365   11.3530 O.2     1  UNL1       -0.2668
      4 C          62.1239   87.8030   11.0316 C.ar    1  UNL1        0.0759
      5 C          62.4227   89.2027   11.4806 C.ar    1  UNL1        0.0848
      6 N          63.2644   89.4355   12.7001 N.ar    1  UNL1       -0.2755
      7 C          63.8074   88.2687   13.4705 C.ar    1  UNL1        0.3341
      8 O          64.6492   88.5015   14.6901 O.2     1  UNL1       -0.2462
      9 C          61.2821   87.5702    9.8120 C.ar    1  UNL1        0.0366
     10 C          61.1708   86.1925    9.2293 C.ar    1  UNL1        0.0026
     11 C          60.3291   85.9596    8.0098 C.ar    1  UNL1        0.0033
     12 C          59.5985   87.1046    7.3730 C.ar    1  UNL1        0.0392
     13 C          59.7098   88.4823    7.9556 C.ar    1  UNL1        0.1658
     14 C          60.5516   88.7151    9.1752 C.ar    1  UNL1        0.1739
     15 F          60.6628   90.0928    9.7579 F       1  UNL1       -0.2010
     16 O          58.9793   89.6272    7.3188 O.3     1  UNL1       -0.4732
     17 C          59.3514   90.0789    5.9377 C.3     1  UNL1        0.2055
     18 C          58.5650   91.1659    5.2668 C.3     1  UNL1        0.0473
     19 C          59.2735   92.3478    4.6744 C.3     1  UNL1        0.0042
     20 C          59.5010   92.4209    3.1936 C.3     1  UNL1        0.0060
     21 C          60.5888   93.2956    2.6442 C.3     1  UNL1        0.0417
     22 C          61.9257   92.7061    2.3049 C.2     1  UNL1        0.0503
     23 O          62.6641   91.8870    3.3217 O.co2   1  UNL1       -0.5492
     24 O          62.5242   92.9356    0.9487 O.co2   1  UNL1       -0.5492
     25 C          64.0515   85.7021   13.7921 C.3     1  UNL1        0.1334
     26 N          62.3577   85.2669   15.7134 N.3     1  UNL1       -0.3172
     27 C          63.1153   84.7791   14.5141 C.3     1  UNL1        0.0968
     28 H          62.5988   86.2413   15.8946 H       1  UNL1        0.1192
     29 H          62.6033   84.6994   16.5246 H       1  UNL1        0.1192
     30 C          62.9365   83.3683   14.0370 C.ar    1  UNL1       -0.0063
     31 C          63.8733   82.7983   13.0135 C.ar    1  UNL1       -0.0029
     32 C          63.6945   81.3876   12.5364 C.ar    1  UNL1       -0.0003
     33 C          62.5789   80.5467   13.0827 C.ar    1  UNL1       -0.0000
     34 C          61.6422   81.1167   14.1062 C.ar    1  UNL1       -0.0003
     35 C          61.8210   82.5275   14.5833 C.ar    1  UNL1       -0.0029
     36 C          63.5632   90.8352   13.1491 C.3     1  UNL1        0.1394
     37 C          64.6086   91.6435   12.4393 C.ar    1  UNL1        0.0319
     38 C          64.4608   91.9421   10.9767 C.ar    1  UNL1        0.1379
     39 F          63.2676   91.4323   10.2240 F       1  UNL1       -0.2044
     40 C          65.5061   92.7504   10.2669 C.ar    1  UNL1        0.0294
     41 C          66.6993   93.2602   11.0196 C.ar    1  UNL1        0.0022
     42 C          66.8471   92.9616   12.4821 C.ar    1  UNL1        0.0037
     43 C          65.8017   92.1533   13.1920 C.ar    1  UNL1        0.0714
     44 C          65.9495   91.8547   14.6545 C.3     1  UNL1        0.4184
     45 F          66.0974   91.5562   16.1170 F       1  UNL1       -0.1659
     46 F          66.4868   90.4942   14.3224 F       1  UNL1       -0.1659
     47 F          65.4122   93.2152   14.9865 F       1  UNL1       -0.1659
@<TRIPOS>UNITY_ATOM_ATTR
23 1
charge -1
@<TRIPOS>BOND
     1    27    26    1
     2    27    25    1
     3    25     1    1
     4     1     2   ar
     5     2     3    2
     6     2     4   ar
     7     4     9    1
     8     9    10   ar
     9    10    11   ar
    10    11    12   ar
    11    12    13   ar
    12    13    16    1
    13    16    17    1
    14    17    18    1
    15    18    19    1
    16    19    20    1
    17    20    21    1
    18    21    22    1
    19    22    23   ar
    20    22    24   ar
    21    13    14   ar
    22    14    15    1
    23     4     5   ar
    24     5     6   ar
    25     6    36    1
    26    36    37    1
    27    37    38   ar
    28    38    39    1
    29    38    40   ar
    30    40    41   ar
    31    41    42   ar
    32    42    43   ar
    33    43    44    1
    34    44    45    1
    35    44    46    1
    36    44    47    1
    37     6     7   ar
    38     7     8    2
    39    27    30    1
    40    30    31   ar
    41    31    32   ar
    42    32    33   ar
    43    33    34   ar
    44    34    35   ar
    45     7     1   ar
    46    35    30   ar
    47    14     9   ar
    48    43    37   ar
    49    26    28    1
    50    26    29    1
@<TRIPOS>MOLECULE
*****
 47 50 0 0 0
SMALL
GASTEIGER

@<TRIPOS>ATOM
      1 N          63.2577   86.5583   13.4380 N.ar    1  UNL1       -0.2470
      2 C          63.6983   87.6746   14.3377 C.ar    1  UNL1        0.2657
      3 O          64.0438   87.3919   15.7698 O.2     1  UNL1       -0.2668
      4 C          63.7933   89.0738   13.8055 C.ar    1  UNL1        0.0759
      5 C          63.4478   89.3565   12.3734 C.ar    1  UNL1        0.0848
      6 N          63.0073   88.2401   11.4737 N.ar    1  UNL1       -0.2755
      7 C          62.9122   86.8410   12.0060 C.ar    1  UNL1        0.3341
      8 O          62.4716   85.7246   11.1062 O.2     1  UNL1       -0.2462
      9 C          64.2339   90.1902   14.7052 C.ar    1  UNL1        0.0366
     10 C          63.5629   90.3941   16.0312 C.ar    1  UNL1        0.0026
     11 C          64.0034   91.5105   16.9309 C.ar    1  UNL1        0.0033
     12 C          65.1150   92.4231   16.5047 C.ar    1  UNL1        0.0392
     13 C          65.7861   92.2192   15.1787 C.ar    1  UNL1        0.1658
     14 C          65.3455   91.1027   14.2790 C.ar    1  UNL1        0.1739
     15 F          66.0165   90.8989   12.9530 F       1  UNL1       -0.2010
     16 O          66.8976   93.1317   14.7525 O.3     1  UNL1       -0.4732
     17 C          66.6186   94.2632   13.8082 C.3     1  UNL1        0.2055
     18 C          66.2002   93.9762   12.3966 C.3     1  UNL1        0.0473
     19 C          66.4659   94.9823   11.3163 C.3     1  UNL1        0.0042
     20 C          66.5151   94.5470    9.8817 C.3     1  UNL1        0.0060
     21 C          67.8337   94.2389    9.2362 C.3     1  UNL1        0.0417
     22 C          68.4127   92.8587    9.3348 C.2     1  UNL1        0.0503
     23 O          68.8167   92.1242    8.0909 O.co2   1  UNL1       -0.5492
     24 O          68.5877   92.2130   10.6774 O.co2   1  UNL1       -0.5492
     25 C          63.1626   85.1590   13.9703 C.3     1  UNL1        0.1334
     26 N          65.5701   84.2192   14.2364 N.3     1  UNL1       -0.3172
     27 C          64.2092   84.1468   13.6098 C.3     1  UNL1        0.0968
     28 H          65.6075   85.0119   14.8773 H       1  UNL1        0.1192
     29 H          66.2740   84.3375   13.5078 H       1  UNL1        0.1192
     30 C          63.8948   83.0620   12.6226 C.ar    1  UNL1       -0.0063
     31 C          63.0911   81.8695   13.0492 C.ar    1  UNL1       -0.0029
     32 C          62.7768   80.7848   12.0620 C.ar    1  UNL1       -0.0003
     33 C          63.2663   80.8925   10.6482 C.ar    1  UNL1       -0.0000
     34 C          64.0700   82.0849   10.2216 C.ar    1  UNL1       -0.0003
     35 C          64.3843   83.1697   11.2088 C.ar    1  UNL1       -0.0029
     36 C          62.6618   88.5229   10.0417 C.3     1  UNL1        0.1394
     37 C          61.4951   87.8313    9.4010 C.ar    1  UNL1        0.0319
     38 C          61.7235   86.6540    8.5000 C.ar    1  UNL1        0.1379
     39 F          63.1186   86.1683    8.2396 F       1  UNL1       -0.2044
     40 C          60.5568   85.9624    7.8593 C.ar    1  UNL1        0.0294
     41 C          59.1617   86.4481    8.1196 C.ar    1  UNL1        0.0022
     42 C          58.9332   87.6253    9.0206 C.ar    1  UNL1        0.0037
     43 C          60.1000   88.3170    9.6613 C.ar    1  UNL1        0.0714
     44 C          59.8715   89.4942   10.5623 C.3     1  UNL1        0.4184
     45 F          59.6431   90.6715   11.4634 F       1  UNL1       -0.1659
     46 F          59.7278   88.5693   11.7344 F       1  UNL1       -0.1659
     47 F          60.0152   90.4191    9.3903 F       1  UNL1       -0.1659
@<TRIPOS>UNITY_ATOM_ATTR
23 1
charge -1
@<TRIPOS>BOND
     1    27    26    1
     2    27    25    1
     3    25     1    1
     4     1     2   ar
     5     2     3    2
     6     2     4   ar
     7     4     9    1
     8     9    10   ar
     9    10    11   ar
    10    11    12   ar
    11    12    13   ar
    12    13    16    1
    13    16    17    1
    14    17    18    1
    15    18    19    1
    16    19    20    1
    17    20    21    1
    18    21    22    1
    19    22    23   ar
    20    22    24   ar
    21    13    14   ar
    22    14    15    1
    23     4     5   ar
    24     5     6   ar
    25     6    36    1
    26    36    37    1
    27    37    38   ar
    28    38    39    1
    29    38    40   ar
    30    40    41   ar
    31    41    42   ar
    32    42    43   ar
    33    43    44    1
    34    44    45    1
    35    44    46    1
    36    44    47    1
    37     6     7   ar
    38     7     8    2
    39    27    30    1
    40    30    31   ar
    41    31    32   ar
    42    32    33   ar
    43    33    34   ar
    44    34    35   ar
    45     7     1   ar
    46    35    30   ar
    47    14     9   ar
    48    43    37   ar
    49    26    28    1
    50    26    29    1
@<TRIPOS>MOLECULE
*****
 47 50 0 0 0
SMALL
GASTEIGER

@<TRIPOS>ATOM
      1 N          61.7006   87.2010   11.7490 N.ar    1  UNL1       -0.2470
      2 C          62.1372   88.3974   12.5414 C.ar    1  UNL1        0.2657
      3 O          61.4144   89.7029   12.3883 O.2     1  UNL1       -0.2668
      4 C          63.2965   88.2884   13.4868 C.ar    1  UNL1        0.0759
      5 C          64.0193   86.9830   13.6399 C.ar    1  UNL1        0.0848
      6 N          63.5827   85.7866   12.8475 N.ar    1  UNL1       -0.2755
      7 C          62.4234   85.8956   11.9020 C.ar    1  UNL1        0.3341
      8 O          61.9867   84.6991   11.1096 O.2     1  UNL1       -0.2462
      9 C          63.7332   89.4849   14.2793 C.ar    1  UNL1        0.0366
     10 C          63.4799   89.5390   15.7567 C.ar    1  UNL1        0.0026
     11 C          63.9165   90.7354   16.5492 C.ar    1  UNL1        0.0033
     12 C          64.6065   91.8777   15.8642 C.ar    1  UNL1        0.0392
     13 C          64.8598   91.8235   14.3867 C.ar    1  UNL1        0.1658
     14 C          64.4231   90.6271   13.5943 C.ar    1  UNL1        0.1739
     15 F          64.6764   90.5729   12.1168 F       1  UNL1       -0.2010
     16 O          65.5497   92.9658   13.7017 O.3     1  UNL1       -0.4732
     17 C          67.0385   93.1149   13.8076 C.3     1  UNL1        0.2055
     18 C          67.9338   91.9592   13.4714 C.3     1  UNL1        0.0473
     19 C          68.3708   91.7366   12.0539 C.3     1  UNL1        0.0042
     20 C          67.4371   92.0518   10.9230 C.3     1  UNL1        0.0060
     21 C          67.9307   92.8251    9.7362 C.3     1  UNL1        0.0417
     22 C          67.5224   94.2566    9.5513 C.2     1  UNL1        0.0503
     23 O          67.1572   95.0922   10.7422 O.co2   1  UNL1       -0.5492
     24 O          67.4793   94.8524    8.1753 O.co2   1  UNL1       -0.5492
     25 C          60.5411   87.3100   10.8035 C.3     1  UNL1        0.1334
     26 N          60.5728   89.0259    8.8530 N.3     1  UNL1       -0.3172
     27 C          60.7801   87.6286    9.3573 C.3     1  UNL1        0.0968
     28 H          60.2722   89.6241    9.6225 H       1  UNL1        0.1192
     29 H          59.8576   89.0223    8.1257 H       1  UNL1        0.1192
     30 C          61.2264   86.5497    8.4154 C.ar    1  UNL1       -0.0063
     31 C          60.2537   85.9563    7.4399 C.ar    1  UNL1       -0.0029
     32 C          60.7000   84.8775    6.4981 C.ar    1  UNL1       -0.0003
     33 C          62.1189   84.3922    6.5318 C.ar    1  UNL1       -0.0000
     34 C          63.0916   84.9856    7.5074 C.ar    1  UNL1       -0.0003
     35 C          62.6453   86.0644    8.4492 C.ar    1  UNL1       -0.0029
     36 C          64.3055   84.4811   13.0005 C.3     1  UNL1        0.1394
     37 C          63.5292   83.2026   13.1120 C.ar    1  UNL1        0.0319
     38 C          63.5962   82.1860   12.0110 C.ar    1  UNL1        0.1379
     39 F          64.4396   82.4480   10.7986 F       1  UNL1       -0.2044
     40 C          62.8198   80.9074   12.1225 C.ar    1  UNL1        0.0294
     41 C          61.9764   80.6453   13.3350 C.ar    1  UNL1        0.0022
     42 C          61.9093   81.6619   14.4359 C.ar    1  UNL1        0.0037
     43 C          62.6857   82.9405   14.3245 C.ar    1  UNL1        0.0714
     44 C          62.6187   83.9570   15.4254 C.3     1  UNL1        0.4184
     45 F          62.5517   84.9736   16.5263 F       1  UNL1       -0.1659
     46 F          63.9547   83.4985   15.9301 F       1  UNL1       -0.1659
     47 F          61.2827   84.4156   14.9207 F       1  UNL1       -0.1659
@<TRIPOS>UNITY_ATOM_ATTR
23 1
charge -1
@<TRIPOS>BOND
     1    27    26    1
     2    27    25    1
     3    25     1    1
     4     1     2   ar
     5     2     3    2
     6     2     4   ar
     7     4     9    1
     8     9    10   ar
     9    10    11   ar
    10    11    12   ar
    11    12    13   ar
    12    13    16    1
    13    16    17    1
    14    17    18    1
    15    18    19    1
    16    19    20    1
    17    20    21    1
    18    21    22    1
    19    22    23   ar
    20    22    24   ar
    21    13    14   ar
    22    14    15    1
    23     4     5   ar
    24     5     6   ar
    25     6    36    1
    26    36    37    1
    27    37    38   ar
    28    38    39    1
    29    38    40   ar
    30    40    41   ar
    31    41    42   ar
    32    42    43   ar
    33    43    44    1
    34    44    45    1
    35    44    46    1
    36    44    47    1
    37     6     7   ar
    38     7     8    2
    39    27    30    1
    40    30    31   ar
    41    31    32   ar
    42    32    33   ar
    43    33    34   ar
    44    34    35   ar
    45     7     1   ar
    46    35    30   ar
    47    14     9   ar
    48    43    37   ar
    49    26    28    1
    50    26    29    1
@<TRIPOS>MOLECULE
*****
 47 50 0 0 0
SMALL
GASTEIGER

@<TRIPOS>ATOM
      1 N          63.3340   89.8288   11.5948 N.ar    1  UNL1       -0.2470
      2 C          63.1846   88.7558   12.6321 C.ar    1  UNL1        0.2657
      3 O          62.4773   87.4774   12.2923 O.2     1  UNL1       -0.2668
      4 C          63.7424   88.9611   14.0093 C.ar    1  UNL1        0.0759
      5 C          64.4497   90.2395   14.3491 C.ar    1  UNL1        0.0848
      6 N          64.5991   91.3126   13.3117 N.ar    1  UNL1       -0.2755
      7 C          64.0413   91.1072   11.9345 C.ar    1  UNL1        0.3341
      8 O          64.1907   92.1803   10.8971 O.2     1  UNL1       -0.2462
      9 C          63.5930   87.8880   15.0467 C.ar    1  UNL1        0.0366
     10 C          63.0969   88.2354   16.4190 C.ar    1  UNL1        0.0026
     11 C          62.9475   87.1625   17.4565 C.ar    1  UNL1        0.0033
     12 C          63.2941   85.7419   17.1216 C.ar    1  UNL1        0.0392
     13 C          63.7902   85.3945   15.7493 C.ar    1  UNL1        0.1658
     14 C          63.9396   86.4676   14.7119 C.ar    1  UNL1        0.1739
     15 F          64.4357   86.1202   13.3395 F       1  UNL1       -0.2010
     16 O          64.1368   83.9741   15.4144 O.3     1  UNL1       -0.4732
     17 C          63.5253   83.3161   14.2132 C.3     1  UNL1        0.2055
     18 C          62.3105   82.4501   14.3694 C.3     1  UNL1        0.0473
     19 C          62.4190   80.9655   14.1850 C.3     1  UNL1        0.0042
     20 C          61.2139   80.1702   13.7787 C.3     1  UNL1        0.0060
     21 C          59.8410   80.6442   14.1539 C.3     1  UNL1        0.0417
     22 C          58.8255   79.6682   14.6696 C.2     1  UNL1        0.0503
     23 O          58.8571   78.2403   14.2111 O.co2   1  UNL1       -0.5492
     24 O          57.7782   80.1200   15.6438 O.co2   1  UNL1       -0.5492
     25 C          62.7762   89.6235   10.2175 C.3     1  UNL1        0.1334
     26 N          60.2700   90.1041   10.7053 N.3     1  UNL1       -0.3172
     27 C          61.3281   89.2755   10.0391 C.3     1  UNL1        0.0968
     28 H          60.7105   90.8562   11.2350 H       1  UNL1        0.1192
     29 H          59.7259   89.5167   11.3371 H       1  UNL1        0.1192
     30 C          60.9381   88.0988    9.1944 C.ar    1  UNL1       -0.0063
     31 C          61.9032   86.9687    8.9911 C.ar    1  UNL1       -0.0029
     32 C          61.5132   85.7921    8.1464 C.ar    1  UNL1       -0.0003
     33 C          60.1580   85.7457    7.5051 C.ar    1  UNL1       -0.0000
     34 C          59.1929   86.8757    7.7084 C.ar    1  UNL1       -0.0003
     35 C          59.5829   88.0523    8.5530 C.ar    1  UNL1       -0.0029
     36 C          65.3064   92.5910   13.6515 C.3     1  UNL1        0.1394
     37 C          66.6124   92.5526   14.3883 C.ar    1  UNL1        0.0319
     38 C          66.6345   92.6813   15.8827 C.ar    1  UNL1        0.1379
     39 F          65.3506   92.8484   16.6401 F       1  UNL1       -0.2044
     40 C          67.9405   92.6430   16.6195 C.ar    1  UNL1        0.0294
     41 C          69.2243   92.4759   15.8620 C.ar    1  UNL1        0.0022
     42 C          69.2022   92.3472   14.3678 C.ar    1  UNL1        0.0037
     43 C          67.8962   92.3855   13.6309 C.ar    1  UNL1        0.0714
     44 C          67.8742   92.2568   12.1366 C.3     1  UNL1        0.4184
     45 F          67.8521   92.1281   10.6423 F       1  UNL1       -0.1659
     46 F          68.7813   91.0656   12.2258 F       1  UNL1       -0.1659
     47 F          66.9670   93.4480   12.0474 F       1  UNL1       -0.1659
@<TRIPOS>UNITY_ATOM_ATTR
23 1
charge -1
@<TRIPOS>BOND
     1    27    26    1
     2    27    25    1
     3    25     1    1
     4     1     2   ar
     5     2     3    2
     6     2     4   ar
     7     4     9    1
     8     9    10   ar
     9    10    11   ar
    10    11    12   ar
    11    12    13   ar
    12    13    16    1
    13    16    17    1
    14    17    18    1
    15    18    19    1
    16    19    20    1
    17    20    21    1
    18    21    22    1
    19    22    23   ar
    20    22    24   ar
    21    13    14   ar
    22    14    15    1
    23     4     5   ar
    24     5     6   ar
    25     6    36    1
    26    36    37    1
    27    37    38   ar
    28    38    39    1
    29    38    40   ar
    30    40    41   ar
    31    41    42   ar
    32    42    43   ar
    33    43    44    1
    34    44    45    1
    35    44    46    1
    36    44    47    1
    37     6     7   ar
    38     7     8    2
    39    27    30    1
    40    30    31   ar
    41    31    32   ar
    42    32    33   ar
    43    33    34   ar
    44    34    35   ar
    45     7     1   ar
    46    35    30   ar
    47    14     9   ar
    48    43    37   ar
    49    26    28    1
    50    26    29    1
@<TRIPOS>MOLECULE
*****
 47 50 0 0 0
SMALL
GASTEIGER

@<TRIPOS>ATOM
      1 N          61.7708   87.4979   11.9311 N.ar    1  UNL1       -0.2470
      2 C          62.2737   88.6753   12.7125 C.ar    1  UNL1        0.2657
      3 O          61.6340   90.0206   12.5367 O.2     1  UNL1       -0.2668
      4 C          63.4163   88.5074   13.6697 C.ar    1  UNL1        0.0759
      5 C          64.0560   87.1621   13.8454 C.ar    1  UNL1        0.0848
      6 N          63.5531   85.9847   13.0640 N.ar    1  UNL1       -0.2755
      7 C          62.4105   86.1525   12.1068 C.ar    1  UNL1        0.3341
      8 O          61.9076   84.9751   11.3253 O.2     1  UNL1       -0.2462
      9 C          63.9192   89.6849   14.4512 C.ar    1  UNL1        0.0366
     10 C          63.4612   89.8987   15.8635 C.ar    1  UNL1        0.0026
     11 C          63.9641   91.0761   16.6450 C.ar    1  UNL1        0.0033
     12 C          64.9250   92.0398   16.0142 C.ar    1  UNL1        0.0392
     13 C          65.3830   91.8261   14.6019 C.ar    1  UNL1        0.1658
     14 C          64.8801   90.6486   13.8204 C.ar    1  UNL1        0.1739
     15 F          65.3381   90.4349   12.4081 F       1  UNL1       -0.2010
     16 O          66.3439   92.7898   13.9711 O.3     1  UNL1       -0.4732
     17 C          66.0781   93.3205   12.5935 C.3     1  UNL1        0.2055
     18 C          66.2040   94.7897   12.3185 C.3     1  UNL1        0.0473
     19 C          66.4597   95.2720   10.9214 C.3     1  UNL1        0.0042
     20 C          66.4799   94.2956    9.7829 C.3     1  UNL1        0.0060
     21 C          67.7607   94.0231    9.0512 C.3     1  UNL1        0.0417
     22 C          68.4812   92.7239    9.2587 C.2     1  UNL1        0.0503
     23 O          68.6941   92.1979   10.6473 O.co2   1  UNL1       -0.5492
     24 O          68.9888   91.9508    8.0778 O.co2   1  UNL1       -0.5492
     25 C          60.6282   87.6657   10.9738 C.3     1  UNL1        0.1334
     26 N          60.8197   89.3411    8.9974 N.3     1  UNL1       -0.3172
     27 C          60.8984   87.9387    9.5239 C.3     1  UNL1        0.0968
     28 H          60.5727   89.9759    9.7566 H       1  UNL1        0.1192
     29 H          60.1088   89.3909    8.2676 H       1  UNL1        0.1192
     30 C          61.2473   86.8093    8.6003 C.ar    1  UNL1       -0.0063
     31 C          60.2100   86.2530    7.6705 C.ar    1  UNL1       -0.0029
     32 C          60.5590   85.1237    6.7471 C.ar    1  UNL1       -0.0003
     33 C          61.9452   84.5508    6.7533 C.ar    1  UNL1       -0.0000
     34 C          62.9825   85.1071    7.6831 C.ar    1  UNL1       -0.0003
     35 C          62.6335   86.2364    8.6066 C.ar    1  UNL1       -0.0029
     36 C          64.1929   84.6394   13.2398 C.3     1  UNL1        0.1394
     37 C          63.3382   83.4132   13.3659 C.ar    1  UNL1        0.0319
     38 C          62.4837   83.2164   14.5830 C.ar    1  UNL1        0.1379
     39 F          62.4841   84.2459   15.6740 F       1  UNL1       -0.2044
     40 C          61.6291   81.9903   14.7091 C.ar    1  UNL1        0.0294
     41 C          61.6288   80.9608   13.6182 C.ar    1  UNL1        0.0022
     42 C          62.4831   81.1575   12.4011 C.ar    1  UNL1        0.0037
     43 C          63.3379   82.3837   12.2749 C.ar    1  UNL1        0.0714
     44 C          64.1922   82.5804   11.0579 C.3     1  UNL1        0.4184
     45 F          65.0466   82.7771    9.8408 F       1  UNL1       -0.1659
     46 F          62.9975   82.3473   10.1815 F       1  UNL1       -0.1659
     47 F          65.3870   82.8136   11.9343 F       1  UNL1       -0.1659
@<TRIPOS>UNITY_ATOM_ATTR
23 1
charge -1
@<TRIPOS>BOND
     1    27    26    1
     2    27    25    1
     3    25     1    1
     4     1     2   ar
     5     2     3    2
     6     2     4   ar
     7     4     9    1
     8     9    10   ar
     9    10    11   ar
    10    11    12   ar
    11    12    13   ar
    12    13    16    1
    13    16    17    1
    14    17    18    1
    15    18    19    1
    16    19    20    1
    17    20    21    1
    18    21    22    1
    19    22    23   ar
    20    22    24   ar
    21    13    14   ar
    22    14    15    1
    23     4     5   ar
    24     5     6   ar
    25     6    36    1
    26    36    37    1
    27    37    38   ar
    28    38    39    1
    29    38    40   ar
    30    40    41   ar
    31    41    42   ar
    32    42    43   ar
    33    43    44    1
    34    44    45    1
    35    44    46    1
    36    44    47    1
    37     6     7   ar
    38     7     8    2
    39    27    30    1
    40    30    31   ar
    41    31    32   ar
    42    32    33   ar
    43    33    34   ar
    44    34    35   ar
    45     7     1   ar
    46    35    30   ar
    47    14     9   ar
    48    43    37   ar
    49    26    28    1
    50    26    29    1
@<TRIPOS>MOLECULE
*****
 47 50 0 0 0
SMALL
GASTEIGER

@<TRIPOS>ATOM
      1 N          63.0636   87.6039   11.9560 N.ar    1  UNL1       -0.2470
      2 C          63.3492   88.8215   12.7841 C.ar    1  UNL1        0.2657
      3 O          62.9364   90.1770   12.2920 O.2     1  UNL1       -0.2668
      4 C          64.0476   88.6836   14.1044 C.ar    1  UNL1        0.0759
      5 C          64.4605   87.3281   14.5965 C.ar    1  UNL1        0.0848
      6 N          64.1749   86.1105   13.7684 N.ar    1  UNL1       -0.2755
      7 C          63.4765   86.2484   12.4481 C.ar    1  UNL1        0.3341
      8 O          63.1908   85.0308   11.6199 O.2     1  UNL1       -0.2462
      9 C          64.3332   89.9012   14.9326 C.ar    1  UNL1        0.0366
     10 C          63.5265   90.1746   16.1673 C.ar    1  UNL1        0.0026
     11 C          63.8121   91.3921   16.9955 C.ar    1  UNL1        0.0033
     12 C          64.9044   92.3364   16.5890 C.ar    1  UNL1        0.0392
     13 C          65.7112   92.0631   15.3543 C.ar    1  UNL1        0.1658
     14 C          65.4255   90.8455   14.5261 C.ar    1  UNL1        0.1739
     15 F          66.2323   90.5721   13.2914 F       1  UNL1       -0.2010
     16 O          66.8035   93.0073   14.9478 O.3     1  UNL1       -0.4732
     17 C          66.5257   94.0887   13.9461 C.3     1  UNL1        0.2055
     18 C          66.2686   93.7341   12.5114 C.3     1  UNL1        0.0473
     19 C          66.2589   94.8074   11.4637 C.3     1  UNL1        0.0042
     20 C          66.4269   94.4455   10.0178 C.3     1  UNL1        0.0060
     21 C          67.7982   94.2051    9.4591 C.3     1  UNL1        0.0417
     22 C          68.3721   92.8194    9.4503 C.2     1  UNL1        0.0503
     23 O          68.7265   92.1626    8.1491 O.co2   1  UNL1       -0.5492
     24 O          68.5918   92.0903   10.7427 O.co2   1  UNL1       -0.5492
     25 C          62.3652   87.7418   10.6356 C.3     1  UNL1        0.1334
     26 N          60.0780   87.8819   11.8601 N.3     1  UNL1       -0.3172
     27 C          60.8729   87.8860   10.5880 C.3     1  UNL1        0.0968
     28 H          60.7084   87.7727   12.6545 H       1  UNL1        0.1192
     29 H          59.4143   87.1076   11.8438 H       1  UNL1        0.1192
     30 C          60.1754   88.0342    9.2683 C.ar    1  UNL1       -0.0063
     31 C          59.4666   86.8613    8.6587 C.ar    1  UNL1       -0.0029
     32 C          58.7692   87.0096    7.3390 C.ar    1  UNL1       -0.0003
     33 C          58.7806   88.3309    6.6289 C.ar    1  UNL1       -0.0000
     34 C          59.4895   89.5038    7.2386 C.ar    1  UNL1       -0.0003
     35 C          60.1869   89.3555    8.5582 C.ar    1  UNL1       -0.0029
     36 C          64.5877   84.7550   14.2605 C.3     1  UNL1        0.1394
     37 C          63.7128   83.5645   14.0014 C.ar    1  UNL1        0.0319
     38 C          64.1124   82.5500   12.9713 C.ar    1  UNL1        0.1379
     39 F          65.3869   82.7260   12.2003 F       1  UNL1       -0.2044
     40 C          63.2374   81.3595   12.7122 C.ar    1  UNL1        0.0294
     41 C          61.9629   81.1835   13.4833 C.ar    1  UNL1        0.0022
     42 C          61.5632   82.1979   14.5134 C.ar    1  UNL1        0.0037
     43 C          62.4382   83.3885   14.7725 C.ar    1  UNL1        0.0714
     44 C          62.0386   84.4029   15.8026 C.3     1  UNL1        0.4184
     45 F          61.6390   85.4174   16.8327 F       1  UNL1       -0.1659
     46 F          61.2251   85.1286   14.7723 F       1  UNL1       -0.1659
     47 F          62.8521   83.6772   16.8328 F       1  UNL1       -0.1659
@<TRIPOS>UNITY_ATOM_ATTR
23 1
charge -1
@<TRIPOS>BOND
     1    27    26    1
     2    27    25    1
     3    25     1    1
     4     1     2   ar
     5     2     3    2
     6     2     4   ar
     7     4     9    1
     8     9    10   ar
     9    10    11   ar
    10    11    12   ar
    11    12    13   ar
    12    13    16    1
    13    16    17    1
    14    17    18    1
    15    18    19    1
    16    19    20    1
    17    20    21    1
    18    21    22    1
    19    22    23   ar
    20    22    24   ar
    21    13    14   ar
    22    14    15    1
    23     4     5   ar
    24     5     6   ar
    25     6    36    1
    26    36    37    1
    27    37    38   ar
    28    38    39    1
    29    38    40   ar
    30    40    41   ar
    31    41    42   ar
    32    42    43   ar
    33    43    44    1
    34    44    45    1
    35    44    46    1
    36    44    47    1
    37     6     7   ar
    38     7     8    2
    39    27    30    1
    40    30    31   ar
    41    31    32   ar
    42    32    33   ar
    43    33    34   ar
    44    34    35   ar
    45     7     1   ar
    46    35    30   ar
    47    14     9   ar
    48    43    37   ar
    49    26    28    1
    50    26    29    1
