@<TRIPOS>MOLECULE
*****
 17 18 0 0 0
SMALL
GASTEIGER

@<TRIPOS>ATOM
      1 C          63.8020   83.3663   11.5074 C.ar    1  UNL1        0.1386
      2 C          63.8539   83.5366   10.0180 C.ar    1  UNL1        0.0369
      3 C          63.0713   84.6347    9.3610 C.ar    1  UNL1        0.0032
      4 C          62.2367   85.5624   10.1933 C.ar    1  UNL1        0.0017
      5 C          62.1847   85.3920   11.6826 C.ar    1  UNL1        0.0032
      6 C          62.9674   84.2940   12.3397 C.ar    1  UNL1        0.0369
      7 C          61.4540   86.6605    9.5362 C.ar    1  UNL1        0.0192
      8 C          60.4370   86.3306    8.4842 C.ar    1  UNL1        0.0031
      9 C          59.6544   87.4287    7.8272 C.ar    1  UNL1        0.0207
     10 C          59.8887   88.8566    8.2221 C.ar    1  UNL1        0.0989
     11 N          60.9058   89.1865    9.2741 N.ar    1  UNL1       -0.2423
     12 C          61.6884   88.0884    9.9312 C.ar    1  UNL1        0.0988
     13 O          64.5846   82.2682   12.1644 O.3     1  UNL1       -0.4755
     14 C          63.9995   81.5222   13.3268 C.3     1  UNL1        0.2054
     15 C          62.6487   80.8817   13.2036 C.3     1  UNL1        0.0473
     16 C          60.2472   80.5218   14.1274 C.3     1  UNL1        0.0001
     17 C          61.5435   81.2764   14.1379 C.3     1  UNL1        0.0038
@<TRIPOS>BOND
     1    16    17    1
     2    17    15    1
     3    15    14    1
     4    14    13    1
     5    13     1    1
     6     1     2   ar
     7     2     3   ar
     8     3     4   ar
     9     4     7    1
    10     7     8   ar
    11     8     9   ar
    12     9    10   ar
    13    10    11   ar
    14    11    12   ar
    15     4     5   ar
    16     5     6   ar
    17     6     1   ar
    18    12     7   ar
@<TRIPOS>MOLECULE
*****
 17 18 0 0 0
SMALL
GASTEIGER

@<TRIPOS>ATOM
      1 C          64.0054   91.1299   12.3760 C.ar    1  UNL1        0.1386
      2 C          63.6127   89.7677   12.8660 C.ar    1  UNL1        0.0369
      3 C          62.8330   88.8462   11.9754 C.ar    1  UNL1        0.0032
      4 C          62.4461   89.2870   10.5949 C.ar    1  UNL1        0.0017
      5 C          62.8387   90.6492   10.1049 C.ar    1  UNL1        0.0032
      6 C          63.6184   91.5707   10.9955 C.ar    1  UNL1        0.0369
      7 C          61.6664   88.3655    9.7044 C.ar    1  UNL1        0.0192
      8 C          62.1499   86.9658    9.4661 C.ar    1  UNL1        0.0031
      9 C          61.3703   86.0443    8.5755 C.ar    1  UNL1        0.0207
     10 C          60.1071   86.5226    7.9233 C.ar    1  UNL1        0.0989
     11 N          59.6236   87.9224    8.1615 N.ar    1  UNL1       -0.2423
     12 C          60.4032   88.8438    9.0521 C.ar    1  UNL1        0.0988
     13 O          64.7850   92.0513   13.2665 O.3     1  UNL1       -0.4755
     14 C          66.1361   92.5427   12.8386 C.3     1  UNL1        0.2054
     15 C          67.3726   92.0029   13.4940 C.3     1  UNL1        0.0473
     16 C          68.1308   92.2944   15.9619 C.3     1  UNL1        0.0001
     17 C          67.3301   91.5611   14.9269 C.3     1  UNL1        0.0038
@<TRIPOS>BOND
     1    16    17    1
     2    17    15    1
     3    15    14    1
     4    14    13    1
     5    13     1    1
     6     1     2   ar
     7     2     3   ar
     8     3     4   ar
     9     4     7    1
    10     7     8   ar
    11     8     9   ar
    12     9    10   ar
    13    10    11   ar
    14    11    12   ar
    15     4     5   ar
    16     5     6   ar
    17     6     1   ar
    18    12     7   ar
@<TRIPOS>MOLECULE
*****
 17 18 0 0 0
SMALL
GASTEIGER

@<TRIPOS>ATOM
      1 C          62.9086   89.5844   12.3665 C.ar    1  UNL1        0.1386
      2 C          63.5573   89.0302   13.6001 C.ar    1  UNL1        0.0369
      3 C          64.7116   89.7523   14.2295 C.ar    1  UNL1        0.0032
      4 C          65.2172   91.0287   13.6252 C.ar    1  UNL1        0.0017
      5 C          64.5685   91.5829   12.3915 C.ar    1  UNL1        0.0032
      6 C          63.4142   90.8608   11.7622 C.ar    1  UNL1        0.0369
      7 C          66.3715   91.7508   14.2546 C.ar    1  UNL1        0.0192
      8 C          66.2105   92.3931   15.6005 C.ar    1  UNL1        0.0031
      9 C          67.3648   93.1153   16.2298 C.ar    1  UNL1        0.0207
     10 C          68.6801   93.1951   15.5133 C.ar    1  UNL1        0.0989
     11 N          68.8411   92.5529   14.1674 N.ar    1  UNL1       -0.2423
     12 C          67.6868   91.8307   13.5380 C.ar    1  UNL1        0.0988
     13 O          61.7543   88.8623   11.7371 O.3     1  UNL1       -0.4755
     14 C          61.9809   87.5599   11.0283 C.3     1  UNL1        0.2054
     15 C          61.9259   87.5017    9.5304 C.3     1  UNL1        0.0473
     16 C          63.0114   85.4019    8.4522 C.3     1  UNL1        0.0001
     17 C          61.7873   86.1795    8.8358 C.3     1  UNL1        0.0038
@<TRIPOS>BOND
     1    16    17    1
     2    17    15    1
     3    15    14    1
     4    14    13    1
     5    13     1    1
     6     1     2   ar
     7     2     3   ar
     8     3     4   ar
     9     4     7    1
    10     7     8   ar
    11     8     9   ar
    12     9    10   ar
    13    10    11   ar
    14    11    12   ar
    15     4     5   ar
    16     5     6   ar
    17     6     1   ar
    18    12     7   ar
@<TRIPOS>MOLECULE
*****
 17 18 0 0 0
SMALL
GASTEIGER

@<TRIPOS>ATOM
      1 C          63.8591   91.0486   12.3070 C.ar    1  UNL1        0.1386
      2 C          63.4962   89.6835   12.8118 C.ar    1  UNL1        0.0369
      3 C          62.7615   88.7255   11.9216 C.ar    1  UNL1        0.0032
      4 C          62.3897   89.1325   10.5267 C.ar    1  UNL1        0.0017
      5 C          62.7525   90.4976   10.0219 C.ar    1  UNL1        0.0032
      6 C          63.4872   91.4556   10.9121 C.ar    1  UNL1        0.0369
      7 C          61.6550   88.1745    9.6365 C.ar    1  UNL1        0.0192
      8 C          62.2510   86.8341    9.3233 C.ar    1  UNL1        0.0031
      9 C          61.5164   85.8761    8.4331 C.ar    1  UNL1        0.0207
     10 C          60.1856   86.2584    7.8561 C.ar    1  UNL1        0.0989
     11 N          59.5896   87.5988    8.1693 N.ar    1  UNL1       -0.2423
     12 C          60.3243   88.5568    9.0595 C.ar    1  UNL1        0.0988
     13 O          64.5938   92.0066   13.1972 O.3     1  UNL1       -0.4755
     14 C          66.0529   92.2712   12.9719 C.3     1  UNL1        0.2054
     15 C          66.4897   93.1437   11.8326 C.3     1  UNL1        0.0473
     16 C          67.5897   93.4061    9.4935 C.3     1  UNL1        0.0001
     17 C          67.1201   92.5306   10.6173 C.3     1  UNL1        0.0038
@<TRIPOS>BOND
     1    16    17    1
     2    17    15    1
     3    15    14    1
     4    14    13    1
     5    13     1    1
     6     1     2   ar
     7     2     3   ar
     8     3     4   ar
     9     4     7    1
    10     7     8   ar
    11     8     9   ar
    12     9    10   ar
    13    10    11   ar
    14    11    12   ar
    15     4     5   ar
    16     5     6   ar
    17     6     1   ar
    18    12     7   ar
@<TRIPOS>MOLECULE
*****
 17 18 0 0 0
SMALL
GASTEIGER

@<TRIPOS>ATOM
      1 C          64.0858   90.8540   14.4568 C.ar    1  UNL1        0.1386
      2 C          63.5937   90.8879   13.0403 C.ar    1  UNL1        0.0369
      3 C          64.3753   91.6232   11.9922 C.ar    1  UNL1        0.0032
      4 C          65.6490   92.3246   12.3606 C.ar    1  UNL1        0.0017
      5 C          66.1410   92.2907   13.7772 C.ar    1  UNL1        0.0032
      6 C          65.3595   91.5554   14.8253 C.ar    1  UNL1        0.0369
      7 C          66.4306   93.0598   11.3126 C.ar    1  UNL1        0.0192
      8 C          67.2358   92.2959   10.3037 C.ar    1  UNL1        0.0031
      9 C          68.0174   93.0311    9.2556 C.ar    1  UNL1        0.0207
     10 C          67.9937   94.5304    9.2164 C.ar    1  UNL1        0.0989
     11 N          67.1885   95.2944   10.2252 N.ar    1  UNL1       -0.2423
     12 C          66.4069   94.5591   11.2733 C.ar    1  UNL1        0.0988
     13 O          63.3042   90.1188   15.5049 O.3     1  UNL1       -0.4755
     14 C          63.5672   88.6630   15.7531 C.3     1  UNL1        0.2054
     15 C          64.3588   87.8640   14.7607 C.3     1  UNL1        0.0473
     16 C          63.6686   85.6497   15.9314 C.3     1  UNL1        0.0001
     17 C          64.5413   86.3886   14.9606 C.3     1  UNL1        0.0038
@<TRIPOS>BOND
     1    16    17    1
     2    17    15    1
     3    15    14    1
     4    14    13    1
     5    13     1    1
     6     1     2   ar
     7     2     3   ar
     8     3     4   ar
     9     4     7    1
    10     7     8   ar
    11     8     9   ar
    12     9    10   ar
    13    10    11   ar
    14    11    12   ar
    15     4     5   ar
    16     5     6   ar
    17     6     1   ar
    18    12     7   ar
@<TRIPOS>MOLECULE
*****
 17 18 0 0 0
SMALL
GASTEIGER

@<TRIPOS>ATOM
      1 C          60.6000   88.0579    9.0576 C.ar    1  UNL1        0.1386
      2 C          60.7822   86.7692    8.3120 C.ar    1  UNL1        0.0369
      3 C          61.5308   85.6348    8.9467 C.ar    1  UNL1        0.0032
      4 C          62.0972   85.7891   10.3270 C.ar    1  UNL1        0.0017
      5 C          61.9150   87.0778   11.0727 C.ar    1  UNL1        0.0032
      6 C          61.1664   88.2122   10.4380 C.ar    1  UNL1        0.0369
      7 C          62.8457   84.6548   10.9617 C.ar    1  UNL1        0.0192
      8 C          63.6212   83.6966   10.1071 C.ar    1  UNL1        0.0031
      9 C          64.3698   82.5622   10.7418 C.ar    1  UNL1        0.0207
     10 C          64.3429   82.3860   12.2311 C.ar    1  UNL1        0.0989
     11 N          63.5674   83.3442   13.0858 N.ar    1  UNL1       -0.2423
     12 C          62.8188   84.4786   12.4511 C.ar    1  UNL1        0.0988
     13 O          59.8514   89.1923    8.4230 O.3     1  UNL1       -0.4755
     14 C          59.1860   89.0005    7.0924 C.3     1  UNL1        0.2054
     15 C          59.5323   89.9010    5.9439 C.3     1  UNL1        0.0473
     16 C          59.0220   92.0692    4.6065 C.3     1  UNL1        0.0001
     17 C          58.5613   90.9533    5.4967 C.3     1  UNL1        0.0038
@<TRIPOS>BOND
     1    16    17    1
     2    17    15    1
     3    15    14    1
     4    14    13    1
     5    13     1    1
     6     1     2   ar
     7     2     3   ar
     8     3     4   ar
     9     4     7    1
    10     7     8   ar
    11     8     9   ar
    12     9    10   ar
    13    10    11   ar
    14    11    12   ar
    15     4     5   ar
    16     5     6   ar
    17     6     1   ar
    18    12     7   ar
@<TRIPOS>MOLECULE
*****
 17 18 0 0 0
SMALL
GASTEIGER

@<TRIPOS>ATOM
      1 C          62.1583   89.0911   10.5446 C.ar    1  UNL1        0.1386
      2 C          62.6561   88.6631   11.8933 C.ar    1  UNL1        0.0369
      3 C          63.5814   89.5535   12.6685 C.ar    1  UNL1        0.0032
      4 C          64.0089   90.8720   12.0950 C.ar    1  UNL1        0.0017
      5 C          63.5112   91.2999   10.7463 C.ar    1  UNL1        0.0032
      6 C          62.5859   90.4095    9.9711 C.ar    1  UNL1        0.0369
      7 C          64.9342   91.7624   12.8703 C.ar    1  UNL1        0.0192
      8 C          65.2144   91.4762   14.3158 C.ar    1  UNL1        0.0031
      9 C          66.1397   92.3667   15.0910 C.ar    1  UNL1        0.0207
     10 C          66.7847   93.5433   14.4207 C.ar    1  UNL1        0.0989
     11 N          66.5046   93.8295   12.9752 N.ar    1  UNL1       -0.2423
     12 C          65.5793   92.9390   12.2000 C.ar    1  UNL1        0.0988
     13 O          61.2331   88.2006    9.7694 O.3     1  UNL1       -0.4755
     14 C          61.4265   86.7134    9.7956 C.3     1  UNL1        0.2054
     15 C          62.1548   86.0320    8.6752 C.3     1  UNL1        0.0473
     16 C          62.0805   84.6555    6.4729 C.3     1  UNL1        0.0001
     17 C          61.3945   85.5226    7.4867 C.3     1  UNL1        0.0038
@<TRIPOS>BOND
     1    16    17    1
     2    17    15    1
     3    15    14    1
     4    14    13    1
     5    13     1    1
     6     1     2   ar
     7     2     3   ar
     8     3     4   ar
     9     4     7    1
    10     7     8   ar
    11     8     9   ar
    12     9    10   ar
    13    10    11   ar
    14    11    12   ar
    15     4     5   ar
    16     5     6   ar
    17     6     1   ar
    18    12     7   ar
@<TRIPOS>MOLECULE
*****
 17 18 0 0 0
SMALL
GASTEIGER

@<TRIPOS>ATOM
      1 C          63.4832   84.0695   11.6241 C.ar    1  UNL1        0.1386
      2 C          62.4774   84.9725   12.2743 C.ar    1  UNL1        0.0369
      3 C          61.6326   85.8829   11.4332 C.ar    1  UNL1        0.0032
      4 C          61.7936   85.8904    9.9420 C.ar    1  UNL1        0.0017
      5 C          62.7995   84.9874    9.2918 C.ar    1  UNL1        0.0032
      6 C          63.6443   84.0770   10.1328 C.ar    1  UNL1        0.0369
      7 C          60.9488   86.8009    9.1009 C.ar    1  UNL1        0.0192
      8 C          60.0523   86.2279    8.0436 C.ar    1  UNL1        0.0031
      9 C          59.2075   87.1384    7.2025 C.ar    1  UNL1        0.0207
     10 C          59.2592   88.6218    7.4188 C.ar    1  UNL1        0.0989
     11 N          60.1558   89.1947    8.4761 N.ar    1  UNL1       -0.2423
     12 C          61.0006   88.2842    9.3171 C.ar    1  UNL1        0.0988
     13 O          64.3280   83.1590   12.4652 O.3     1  UNL1       -0.4755
     14 C          64.4850   83.4250   13.9330 C.3     1  UNL1        0.2054
     15 C          65.3492   84.5578   14.4018 C.3     1  UNL1        0.0473
     16 C          63.7387   85.6517   16.1221 C.3     1  UNL1        0.0001
     17 C          64.7217   85.7835   14.9968 C.3     1  UNL1        0.0038
@<TRIPOS>BOND
     1    16    17    1
     2    17    15    1
     3    15    14    1
     4    14    13    1
     5    13     1    1
     6     1     2   ar
     7     2     3   ar
     8     3     4   ar
     9     4     7    1
    10     7     8   ar
    11     8     9   ar
    12     9    10   ar
    13    10    11   ar
    14    11    12   ar
    15     4     5   ar
    16     5     6   ar
    17     6     1   ar
    18    12     7   ar
@<TRIPOS>MOLECULE
*****
 17 18 0 0 0
SMALL
GASTEIGER

@<TRIPOS>ATOM
      1 C          63.6085   83.9554   11.5491 C.ar    1  UNL1        0.1386
      2 C          62.6043   84.8229   12.2484 C.ar    1  UNL1        0.0369
      3 C          61.7498   85.7684   11.4572 C.ar    1  UNL1        0.0032
      4 C          61.8995   85.8463    9.9667 C.ar    1  UNL1        0.0017
      5 C          62.9037   84.9788    9.2675 C.ar    1  UNL1        0.0032
      6 C          63.7582   84.0334   10.0587 C.ar    1  UNL1        0.0369
      7 C          61.0450   86.7917    9.1755 C.ar    1  UNL1        0.0192
      8 C          61.1090   88.2658    9.4458 C.ar    1  UNL1        0.0031
      9 C          60.2546   89.2112    8.6546 C.ar    1  UNL1        0.0207
     10 C          59.3361   88.6826    7.5931 C.ar    1  UNL1        0.0989
     11 N          59.2721   87.2086    7.3228 N.ar    1  UNL1       -0.2423
     12 C          60.1265   86.2632    8.1140 C.ar    1  UNL1        0.0988
     13 O          64.4630   83.0100   12.3403 O.3     1  UNL1       -0.4755
     14 C          63.9592   81.6344   12.6625 C.3     1  UNL1        0.2054
     15 C          62.9129   80.9970   11.7970 C.3     1  UNL1        0.0473
     16 C          62.7419   79.3081    9.8302 C.3     1  UNL1        0.0001
     17 C          63.2416   80.6087   10.3858 C.3     1  UNL1        0.0038
@<TRIPOS>BOND
     1    16    17    1
     2    17    15    1
     3    15    14    1
     4    14    13    1
     5    13     1    1
     6     1     2   ar
     7     2     3   ar
     8     3     4   ar
     9     4     7    1
    10     7     8   ar
    11     8     9   ar
    12     9    10   ar
    13    10    11   ar
    14    11    12   ar
    15     4     5   ar
    16     5     6   ar
    17     6     1   ar
    18    12     7   ar
