@<TRIPOS>MOLECULE
*****
 33 36 0 0 0
SMALL
GASTEIGER

@<TRIPOS>ATOM
      1 N          64.1548   88.9864   13.7930 N.am    1  UNL1       -0.2987
      2 C          63.0830   89.0149   12.7440 C.2     1  UNL1        0.2476
      3 O          62.2935   90.2691   12.5124 O.2     1  UNL1       -0.2701
      4 H          64.6730   88.1633   13.9450 H       1  UNL1        0.1500
      5 C          62.8007   87.7892   11.9267 C.ar    1  UNL1        0.0755
      6 C          62.2325   87.9236   10.5450 C.ar    1  UNL1        0.1035
      7 N          61.9502   86.6979    9.7278 N.ar    1  UNL1       -0.2406
      8 C          62.2362   85.3378   10.2921 C.ar    1  UNL1        0.1180
      9 C          62.8044   85.2035   11.6738 C.ar    1  UNL1        0.1036
     10 C          63.0867   86.4292   12.4911 C.ar    1  UNL1        0.0460
     11 C          63.6430   85.9874   13.8123 C.ar    1  UNL1        0.1222
     12 N          63.7045   84.4887   13.8114 N.ar    1  UNL1       -0.1635
     13 N          63.1863   84.0042   12.4898 N.ar    1  UNL1       -0.2281
     14 C          63.0702   82.5719   12.0597 C.ar    1  UNL1        0.0830
     15 C          63.4189   82.1802   10.6544 C.ar    1  UNL1        0.0215
     16 C          63.3028   80.7479   10.2243 C.ar    1  UNL1        0.0312
     17 C          62.8381   79.7072   11.1995 C.ar    1  UNL1        0.1402
     18 F          62.7220   78.2749   10.7694 F       1  UNL1       -0.2042
     19 C          62.4894   80.0990   12.6048 C.ar    1  UNL1        0.0312
     20 C          62.6055   81.5313   13.0349 C.ar    1  UNL1        0.0215
     21 C          64.4372   90.2121   14.6103 C.3     1  UNL1        0.0945
     22 C          65.5108   91.1682   14.1822 C.ar    1  UNL1       -0.0001
     23 C          66.8134   91.2145   14.9244 C.ar    1  UNL1        0.0181
     24 C          67.8870   92.1705   14.4963 C.ar    1  UNL1        0.1001
     25 N          67.6579   93.0803   13.3260 N.ar    1  UNL1       -0.2257
     26 C          66.3553   93.0341   12.5838 C.ar    1  UNL1        0.1860
     27 C          65.2817   92.0780   13.0119 C.ar    1  UNL1        0.0352
     28 S          66.1262   93.9440   11.4134 S.O2    1  UNL1        0.0268
     29 C          65.8972   94.8538   10.2431 C.3     1  UNL1        0.1834
     30 O          66.1695   95.1317   12.3284 O.2     1  UNL1       -0.1671
     31 O          66.0829   92.7562   10.4984 O.2     1  UNL1       -0.1671
     32 C          63.1437   89.3387   16.6874 C.3     1  UNL1        0.0021
     33 C          63.6459   90.4816   15.8558 C.3     1  UNL1        0.0241
@<TRIPOS>BOND
     1    32    33    1
     2    21    33    1
     3    21     1    1
     4     1     2   am
     5     2     3    2
     6     2     5    1
     7     5     6   ar
     8     6     7   ar
     9     7     8   ar
    10     8     9   ar
    11     9    10   ar
    12    10    11   ar
    13    11    12   ar
    14    12    13   ar
    15    13    14    1
    16    14    15   ar
    17    15    16   ar
    18    16    17   ar
    19    17    18    1
    20    17    19   ar
    21    19    20   ar
    22    21    22    1
    23    22    23   ar
    24    23    24   ar
    25    24    25   ar
    26    25    26   ar
    27    26    28    1
    28    28    29    1
    29    28    30    2
    30    28    31    2
    31    26    27   ar
    32    10     5   ar
    33    20    14   ar
    34    27    22   ar
    35    13     9   ar
    36     1     4    1
@<TRIPOS>MOLECULE
*****
 33 36 0 0 0
SMALL
GASTEIGER

@<TRIPOS>ATOM
      1 N          63.9622   88.8200   13.6964 N.am    1  UNL1       -0.2987
      2 C          62.9024   88.8295   12.6349 C.2     1  UNL1        0.2476
      3 O          62.1017   90.0731   12.3857 O.2     1  UNL1       -0.2701
      4 H          64.4878   88.0038   13.8599 H       1  UNL1        0.1500
      5 C          62.6433   87.5953   11.8227 C.ar    1  UNL1        0.0755
      6 C          62.0686   87.7129   10.4422 C.ar    1  UNL1        0.1035
      7 N          61.8096   86.4787    9.6300 N.ar    1  UNL1       -0.2406
      8 C          62.1253   85.1269   10.1984 C.ar    1  UNL1        0.1180
      9 C          62.7001   85.0093   11.5788 C.ar    1  UNL1        0.1036
     10 C          62.9591   86.2435   12.3910 C.ar    1  UNL1        0.0460
     11 C          63.5281   85.8181   13.7121 C.ar    1  UNL1        0.1222
     12 N          63.6208   84.3210   13.7164 N.ar    1  UNL1       -0.1635
     13 N          63.1090   83.8212   12.3980 N.ar    1  UNL1       -0.2281
     14 C          63.0215   82.3852   11.9732 C.ar    1  UNL1        0.0830
     15 C          63.3888   81.9936   10.5726 C.ar    1  UNL1        0.0215
     16 C          63.3013   80.5577   10.1478 C.ar    1  UNL1        0.0312
     17 C          62.8465   79.5133   11.1237 C.ar    1  UNL1        0.1402
     18 F          62.7590   78.0773   10.6989 F       1  UNL1       -0.2042
     19 C          62.4792   79.9049   12.5243 C.ar    1  UNL1        0.0312
     20 C          62.5666   81.3408   12.9490 C.ar    1  UNL1        0.0215
     21 C          64.2213   90.0542   14.5086 C.3     1  UNL1        0.0945
     22 C          65.1743   91.0973   14.0048 C.ar    1  UNL1       -0.0001
     23 C          64.9994   91.6716   12.6301 C.ar    1  UNL1        0.0181
     24 C          65.9523   92.7147   12.1263 C.ar    1  UNL1        0.1001
     25 N          67.0801   93.1835   12.9970 N.ar    1  UNL1       -0.2257
     26 C          67.2550   92.6092   14.3717 C.ar    1  UNL1        0.1860
     27 C          66.3021   91.5661   14.8755 C.ar    1  UNL1        0.0352
     28 S          68.3828   93.0780   15.2424 S.O2    1  UNL1        0.0268
     29 C          69.5106   93.5469   16.1132 C.3     1  UNL1        0.1834
     30 O          67.3954   93.5389   16.2732 O.2     1  UNL1       -0.1671
     31 O          69.3703   92.6172   14.2117 O.2     1  UNL1       -0.1671
     32 C          63.1221   89.0524   16.6390 C.3     1  UNL1        0.0021
     33 C          63.5275   90.2452   15.8247 C.3     1  UNL1        0.0241
@<TRIPOS>BOND
     1    32    33    1
     2    21    33    1
     3    21     1    1
     4     1     2   am
     5     2     3    2
     6     2     5    1
     7     5     6   ar
     8     6     7   ar
     9     7     8   ar
    10     8     9   ar
    11     9    10   ar
    12    10    11   ar
    13    11    12   ar
    14    12    13   ar
    15    13    14    1
    16    14    15   ar
    17    15    16   ar
    18    16    17   ar
    19    17    18    1
    20    17    19   ar
    21    19    20   ar
    22    21    22    1
    23    22    23   ar
    24    23    24   ar
    25    24    25   ar
    26    25    26   ar
    27    26    28    1
    28    28    29    1
    29    28    30    2
    30    28    31    2
    31    26    27   ar
    32    10     5   ar
    33    20    14   ar
    34    27    22   ar
    35    13     9   ar
    36     1     4    1
@<TRIPOS>MOLECULE
*****
 33 36 0 0 0
SMALL
GASTEIGER

@<TRIPOS>ATOM
      1 N          63.5346   89.0690   12.0903 N.am    1  UNL1       -0.2987
      2 C          63.5415   88.4982   13.4775 C.2     1  UNL1        0.2476
      3 O          63.2850   89.3894   14.6564 O.2     1  UNL1       -0.2701
      4 H          63.7029   88.4840   11.3165 H       1  UNL1        0.1500
      5 C          63.8049   87.0362   13.6856 C.ar    1  UNL1        0.0755
      6 C          64.6418   86.5825   14.8448 C.ar    1  UNL1        0.1035
      7 N          64.9052   85.1206   15.0529 N.ar    1  UNL1       -0.2406
      8 C          64.3317   84.1124   14.1018 C.ar    1  UNL1        0.1180
      9 C          63.4948   84.5660   12.9427 C.ar    1  UNL1        0.1036
     10 C          63.2314   86.0280   12.7346 C.ar    1  UNL1        0.0460
     11 C          62.3755   86.1753   11.5115 C.ar    1  UNL1        0.1222
     12 N          62.1100   84.8044   10.9637 N.ar    1  UNL1       -0.1635
     13 N          62.8017   83.8098   11.8483 N.ar    1  UNL1       -0.2281
     14 C          62.8006   82.3205   11.6697 C.ar    1  UNL1        0.0830
     15 C          63.1734   81.7236   10.3451 C.ar    1  UNL1        0.0215
     16 C          63.1723   80.2343   10.1665 C.ar    1  UNL1        0.0312
     17 C          62.7984   79.3418   11.3127 C.ar    1  UNL1        0.1402
     18 F          62.7973   77.8524   11.1341 F       1  UNL1       -0.2042
     19 C          62.4256   79.9387   12.6373 C.ar    1  UNL1        0.0312
     20 C          62.4267   81.4280   12.8158 C.ar    1  UNL1        0.0215
     21 C          63.2711   90.5309   11.8821 C.3     1  UNL1        0.0945
     22 C          64.3970   91.5173   11.9802 C.ar    1  UNL1       -0.0001
     23 C          64.7999   92.3175   10.7771 C.ar    1  UNL1        0.0181
     24 C          65.9257   93.3038   10.8752 C.ar    1  UNL1        0.1001
     25 N          66.6486   93.4900   12.1762 N.ar    1  UNL1       -0.2257
     26 C          66.2457   92.6897   13.3792 C.ar    1  UNL1        0.1860
     27 C          65.1199   91.7034   13.2812 C.ar    1  UNL1        0.0352
     28 S          66.9686   92.8759   14.6803 S.O2    1  UNL1        0.0268
     29 C          67.6915   93.0621   15.9813 C.3     1  UNL1        0.1834
     30 O          68.2816   92.8388   13.9561 O.2     1  UNL1       -0.1671
     31 O          65.6556   92.9130   15.4046 O.2     1  UNL1       -0.1671
     32 C          60.7954   90.0130   11.2882 C.3     1  UNL1        0.0021
     33 C          61.8819   91.0065   11.5759 C.3     1  UNL1        0.0241
@<TRIPOS>BOND
     1    32    33    1
     2    21    33    1
     3    21     1    1
     4     1     2   am
     5     2     3    2
     6     2     5    1
     7     5     6   ar
     8     6     7   ar
     9     7     8   ar
    10     8     9   ar
    11     9    10   ar
    12    10    11   ar
    13    11    12   ar
    14    12    13   ar
    15    13    14    1
    16    14    15   ar
    17    15    16   ar
    18    16    17   ar
    19    17    18    1
    20    17    19   ar
    21    19    20   ar
    22    21    22    1
    23    22    23   ar
    24    23    24   ar
    25    24    25   ar
    26    25    26   ar
    27    26    28    1
    28    28    29    1
    29    28    30    2
    30    28    31    2
    31    26    27   ar
    32    10     5   ar
    33    20    14   ar
    34    27    22   ar
    35    13     9   ar
    36     1     4    1
@<TRIPOS>MOLECULE
*****
 33 36 0 0 0
SMALL
GASTEIGER

@<TRIPOS>ATOM
      1 N          64.5243   88.0615   15.1063 N.am    1  UNL1       -0.2987
      2 C          63.9626   89.4250   14.8321 C.2     1  UNL1        0.2476
      3 O          62.4921   89.6759   14.9890 O.2     1  UNL1       -0.2701
      4 H          65.4895   87.8969   15.0033 H       1  UNL1        0.1500
      5 C          64.8715   90.5378   14.4009 C.ar    1  UNL1        0.0755
      6 C          65.9029   91.0737   15.3490 C.ar    1  UNL1        0.1035
      7 N          66.8117   92.1864   14.9178 N.ar    1  UNL1       -0.2406
      8 C          66.6890   92.7632   13.5386 C.ar    1  UNL1        0.1180
      9 C          65.6576   92.2273   12.5905 C.ar    1  UNL1        0.1036
     10 C          64.7488   91.1146   13.0217 C.ar    1  UNL1        0.0460
     11 C          63.8342   90.7931   11.8770 C.ar    1  UNL1        0.1222
     12 N          64.1778   91.7071   10.7384 N.ar    1  UNL1       -0.1635
     13 N          65.3047   92.5935   11.1794 N.ar    1  UNL1       -0.2281
     14 C          65.9631   93.6591   10.3541 C.ar    1  UNL1        0.0830
     15 C          65.5090   95.0841   10.4684 C.ar    1  UNL1        0.0215
     16 C          66.1675   96.1496    9.6432 C.ar    1  UNL1        0.0312
     17 C          67.2801   95.7901    8.7035 C.ar    1  UNL1        0.1402
     18 F          67.9385   96.8557    7.8783 F       1  UNL1       -0.2042
     19 C          67.7342   94.3651    8.5892 C.ar    1  UNL1        0.0312
     20 C          67.0757   93.2996    9.4145 C.ar    1  UNL1        0.0215
     21 C          63.6156   86.9488   15.5374 C.3     1  UNL1        0.0945
     22 C          63.6901   85.6136   14.8579 C.ar    1  UNL1       -0.0001
     23 C          63.8674   84.3664   15.6722 C.ar    1  UNL1        0.0181
     24 C          63.9419   83.0313   14.9928 C.ar    1  UNL1        0.1001
     25 N          63.8392   82.9432   13.4989 N.ar    1  UNL1       -0.2257
     26 C          63.6618   84.1904   12.6845 C.ar    1  UNL1        0.1860
     27 C          63.5873   85.5255   13.3640 C.ar    1  UNL1        0.0352
     28 S          63.5591   84.1023   11.1906 S.O2    1  UNL1        0.0268
     29 C          63.4562   84.0143    9.6968 C.3     1  UNL1        0.1834
     30 O          62.3512   84.9911   11.2214 O.2     1  UNL1       -0.1671
     31 O          64.7670   83.2135   11.1598 O.2     1  UNL1       -0.1671
     32 C          62.9278   86.6564   18.0257 C.3     1  UNL1        0.0021
     33 C          62.6322   87.1712   16.6481 C.3     1  UNL1        0.0241
@<TRIPOS>BOND
     1    32    33    1
     2    21    33    1
     3    21     1    1
     4     1     2   am
     5     2     3    2
     6     2     5    1
     7     5     6   ar
     8     6     7   ar
     9     7     8   ar
    10     8     9   ar
    11     9    10   ar
    12    10    11   ar
    13    11    12   ar
    14    12    13   ar
    15    13    14    1
    16    14    15   ar
    17    15    16   ar
    18    16    17   ar
    19    17    18    1
    20    17    19   ar
    21    19    20   ar
    22    21    22    1
    23    22    23   ar
    24    23    24   ar
    25    24    25   ar
    26    25    26   ar
    27    26    28    1
    28    28    29    1
    29    28    30    2
    30    28    31    2
    31    26    27   ar
    32    10     5   ar
    33    20    14   ar
    34    27    22   ar
    35    13     9   ar
    36     1     4    1
@<TRIPOS>MOLECULE
*****
 33 36 0 0 0
SMALL
GASTEIGER

@<TRIPOS>ATOM
      1 N          63.8538   89.2919   12.2399 N.am    1  UNL1       -0.2987
      2 C          63.5337   88.6648   13.5644 C.2     1  UNL1        0.2476
      3 O          62.9605   89.5000   14.6707 O.2     1  UNL1       -0.2701
      4 H          64.2300   88.7437   11.5138 H       1  UNL1        0.1500
      5 C          63.7869   87.2025   13.7827 C.ar    1  UNL1        0.0755
      6 C          64.6042   86.7498   14.9561 C.ar    1  UNL1        0.1035
      7 N          64.8574   85.2875   15.1743 N.ar    1  UNL1       -0.2406
      8 C          64.2933   84.2780   14.2190 C.ar    1  UNL1        0.1180
      9 C          63.4760   84.7307   13.0456 C.ar    1  UNL1        0.1036
     10 C          63.2228   86.1929   12.8274 C.ar    1  UNL1        0.0460
     11 C          62.3860   86.3391   11.5910 C.ar    1  UNL1        0.1222
     12 N          62.1220   84.9671   11.0452 N.ar    1  UNL1       -0.1635
     13 N          62.7957   83.9731   11.9441 N.ar    1  UNL1       -0.2281
     14 C          62.7900   82.4830   11.7719 C.ar    1  UNL1        0.0830
     15 C          63.1905   81.8782   10.4590 C.ar    1  UNL1        0.0215
     16 C          63.1849   80.3882   10.2867 C.ar    1  UNL1        0.0312
     17 C          62.7787   79.5028   11.4274 C.ar    1  UNL1        0.1402
     18 F          62.7730   78.0128   11.2552 F       1  UNL1       -0.2042
     19 C          62.3781   80.1076   12.7403 C.ar    1  UNL1        0.0312
     20 C          62.3838   81.5977   12.9126 C.ar    1  UNL1        0.0215
     21 C          63.6006   90.7541   12.0216 C.3     1  UNL1        0.0945
     22 C          64.6948   91.7499   12.2691 C.ar    1  UNL1       -0.0001
     23 C          65.3137   91.8612   13.6309 C.ar    1  UNL1        0.0181
     24 C          66.4079   92.8569   13.8784 C.ar    1  UNL1        0.1001
     25 N          66.8832   93.7413   12.7641 N.ar    1  UNL1       -0.2257
     26 C          66.2643   93.6301   11.4022 C.ar    1  UNL1        0.1860
     27 C          65.1701   92.6344   11.1548 C.ar    1  UNL1        0.0352
     28 S          66.7396   94.5146   10.2879 S.O2    1  UNL1        0.0268
     29 C          67.2150   95.3990    9.1736 C.3     1  UNL1        0.1834
     30 O          67.9889   93.6930   10.1688 O.2     1  UNL1       -0.1671
     31 O          65.4903   95.3361   10.4070 O.2     1  UNL1       -0.1671
     32 C          61.3501   90.2817   10.8125 C.3     1  UNL1        0.0021
     33 C          62.2532   91.2207   11.5559 C.3     1  UNL1        0.0241
@<TRIPOS>BOND
     1    32    33    1
     2    21    33    1
     3    21     1    1
     4     1     2   am
     5     2     3    2
     6     2     5    1
     7     5     6   ar
     8     6     7   ar
     9     7     8   ar
    10     8     9   ar
    11     9    10   ar
    12    10    11   ar
    13    11    12   ar
    14    12    13   ar
    15    13    14    1
    16    14    15   ar
    17    15    16   ar
    18    16    17   ar
    19    17    18    1
    20    17    19   ar
    21    19    20   ar
    22    21    22    1
    23    22    23   ar
    24    23    24   ar
    25    24    25   ar
    26    25    26   ar
    27    26    28    1
    28    28    29    1
    29    28    30    2
    30    28    31    2
    31    26    27   ar
    32    10     5   ar
    33    20    14   ar
    34    27    22   ar
    35    13     9   ar
    36     1     4    1
@<TRIPOS>MOLECULE
*****
 33 36 0 0 0
SMALL
GASTEIGER

@<TRIPOS>ATOM
      1 N          65.0514   90.0094   14.8044 N.am    1  UNL1       -0.2987
      2 C          63.8751   89.7160   15.6877 C.2     1  UNL1        0.2476
      3 O          63.0529   90.8422   16.2405 O.2     1  UNL1       -0.2701
      4 H          65.5910   89.2702   14.4416 H       1  UNL1        0.1500
      5 C          63.5209   88.2963   16.0182 C.ar    1  UNL1        0.0755
      6 C          63.1280   87.9278   17.4181 C.ar    1  UNL1        0.1035
      7 N          62.7739   86.5081   17.7485 N.ar    1  UNL1       -0.2406
      8 C          62.8126   85.4571   16.6790 C.ar    1  UNL1        0.1180
      9 C          63.2055   85.8256   15.2791 C.ar    1  UNL1        0.1036
     10 C          63.5597   87.2453   14.9487 C.ar    1  UNL1        0.0460
     11 C          63.9061   87.3093   13.4906 C.ar    1  UNL1        0.1222
     12 N          63.7661   85.9292   12.9200 N.ar    1  UNL1       -0.1635
     13 N          63.3331   85.0123   14.0253 N.ar    1  UNL1       -0.2281
     14 C          63.0733   83.5403   13.8990 C.ar    1  UNL1        0.0830
     15 C          61.8700   82.9320   14.5562 C.ar    1  UNL1        0.0215
     16 C          61.6102   81.4601   14.4299 C.ar    1  UNL1        0.0312
     17 C          62.5537   80.5964   13.6464 C.ar    1  UNL1        0.1402
     18 F          62.2939   79.1245   13.5201 F       1  UNL1       -0.2042
     19 C          63.7571   81.2048   12.9893 C.ar    1  UNL1        0.0312
     20 C          64.0169   82.6767   13.1156 C.ar    1  UNL1        0.0215
     21 C          65.4056   91.4290   14.4739 C.3     1  UNL1        0.0945
     22 C          65.1815   91.9545   13.0869 C.ar    1  UNL1       -0.0001
     23 C          64.2488   91.2388   12.1554 C.ar    1  UNL1        0.0181
     24 C          64.0247   91.7642   10.7684 C.ar    1  UNL1        0.1001
     25 N          64.7334   93.0053   10.3131 N.ar    1  UNL1       -0.2257
     26 C          65.6661   93.7210   11.2446 C.ar    1  UNL1        0.1860
     27 C          65.8902   93.1956   12.6316 C.ar    1  UNL1        0.0352
     28 S          66.3748   94.9622   10.7892 S.O2    1  UNL1        0.0268
     29 C          67.0834   96.2032   10.3337 C.3     1  UNL1        0.1834
     30 O          66.6418   94.3216    9.4594 O.2     1  UNL1       -0.1671
     31 O          66.1077   95.6027   12.1190 O.2     1  UNL1       -0.1671
     32 C          67.4628   92.3285   15.7813 C.3     1  UNL1        0.0021
     33 C          65.9838   92.3231   15.5304 C.3     1  UNL1        0.0241
@<TRIPOS>BOND
     1    32    33    1
     2    21    33    1
     3    21     1    1
     4     1     2   am
     5     2     3    2
     6     2     5    1
     7     5     6   ar
     8     6     7   ar
     9     7     8   ar
    10     8     9   ar
    11     9    10   ar
    12    10    11   ar
    13    11    12   ar
    14    12    13   ar
    15    13    14    1
    16    14    15   ar
    17    15    16   ar
    18    16    17   ar
    19    17    18    1
    20    17    19   ar
    21    19    20   ar
    22    21    22    1
    23    22    23   ar
    24    23    24   ar
    25    24    25   ar
    26    25    26   ar
    27    26    28    1
    28    28    29    1
    29    28    30    2
    30    28    31    2
    31    26    27   ar
    32    10     5   ar
    33    20    14   ar
    34    27    22   ar
    35    13     9   ar
    36     1     4    1
@<TRIPOS>MOLECULE
*****
 33 36 0 0 0
SMALL
GASTEIGER

@<TRIPOS>ATOM
      1 N          63.9795   89.8816   12.1739 N.am    1  UNL1       -0.2987
      2 C          62.7264   89.6182   11.3927 C.2     1  UNL1        0.2476
      3 O          61.8868   90.7647   10.9127 O.2     1  UNL1       -0.2701
      4 H          64.5305   89.1291   12.4890 H       1  UNL1        0.1500
      5 C          62.3129   88.2080   11.0914 C.ar    1  UNL1        0.0755
      6 C          61.4790   87.9135    9.8799 C.ar    1  UNL1        0.1035
      7 N          61.0656   86.5035    9.5787 N.ar    1  UNL1       -0.2406
      8 C          61.4861   85.3879   10.4891 C.ar    1  UNL1        0.1180
      9 C          62.3199   85.6824   11.7006 C.ar    1  UNL1        0.1036
     10 C          62.7334   87.0925   12.0018 C.ar    1  UNL1        0.0460
     11 C          63.5499   87.0774   13.2600 C.ar    1  UNL1        0.1222
     12 N          63.6411   85.6580   13.7364 N.ar    1  UNL1       -0.1635
     13 N          62.8810   84.7959   12.7726 N.ar    1  UNL1       -0.2281
     14 C          62.7115   83.3083   12.8647 C.ar    1  UNL1        0.0830
     15 C          62.1489   82.6933   14.1117 C.ar    1  UNL1        0.0215
     16 C          61.9795   81.2057   14.2038 C.ar    1  UNL1        0.0312
     17 C          62.3727   80.3332   13.0488 C.ar    1  UNL1        0.1402
     18 F          62.2033   78.8456   13.1409 F       1  UNL1       -0.2042
     19 C          62.9354   80.9482   11.8018 C.ar    1  UNL1        0.0312
     20 C          63.1048   82.4357   11.7097 C.ar    1  UNL1        0.0215
     21 C          64.3930   91.2917   12.4752 C.3     1  UNL1        0.0945
     22 C          64.8333   91.6646   13.8598 C.ar    1  UNL1       -0.0001
     23 C          63.9291   91.4082   15.0289 C.ar    1  UNL1        0.0181
     24 C          64.3693   91.7811   16.4135 C.ar    1  UNL1        0.1001
     25 N          65.7137   92.4104   16.6290 N.ar    1  UNL1       -0.2257
     26 C          66.6179   92.6668   15.4599 C.ar    1  UNL1        0.1860
     27 C          66.1777   92.2939   14.0753 C.ar    1  UNL1        0.0352
     28 S          67.9624   93.2961   15.6755 S.O2    1  UNL1        0.0268
     29 C          69.3068   93.9253   15.8911 C.3     1  UNL1        0.1834
     30 O          68.2971   92.2360   16.6825 O.2     1  UNL1       -0.1671
     31 O          67.6277   94.3562   14.6685 O.2     1  UNL1       -0.1671
     32 C          65.6015   92.6045   10.5868 C.3     1  UNL1        0.0021
     33 C          64.3662   92.3288   11.3919 C.3     1  UNL1        0.0241
@<TRIPOS>BOND
     1    32    33    1
     2    21    33    1
     3    21     1    1
     4     1     2   am
     5     2     3    2
     6     2     5    1
     7     5     6   ar
     8     6     7   ar
     9     7     8   ar
    10     8     9   ar
    11     9    10   ar
    12    10    11   ar
    13    11    12   ar
    14    12    13   ar
    15    13    14    1
    16    14    15   ar
    17    15    16   ar
    18    16    17   ar
    19    17    18    1
    20    17    19   ar
    21    19    20   ar
    22    21    22    1
    23    22    23   ar
    24    23    24   ar
    25    24    25   ar
    26    25    26   ar
    27    26    28    1
    28    28    29    1
    29    28    30    2
    30    28    31    2
    31    26    27   ar
    32    10     5   ar
    33    20    14   ar
    34    27    22   ar
    35    13     9   ar
    36     1     4    1
@<TRIPOS>MOLECULE
*****
 33 36 0 0 0
SMALL
GASTEIGER

@<TRIPOS>ATOM
      1 N          64.7200   90.2676   12.2547 N.am    1  UNL1       -0.2987
      2 C          63.2754   90.0859   11.8943 C.2     1  UNL1        0.2476
      3 O          62.3511   91.2673   11.8822 O.2     1  UNL1       -0.2701
      4 H          65.3267   89.4923   12.2627 H       1  UNL1        0.1500
      5 C          62.7550   88.7229   11.5459 C.ar    1  UNL1        0.0755
      6 C          61.8873   88.5379   10.3364 C.ar    1  UNL1        0.1035
      7 N          61.3670   87.1748    9.9881 N.ar    1  UNL1       -0.2406
      8 C          61.7143   85.9968   10.8493 C.ar    1  UNL1        0.1180
      9 C          62.5820   86.1818   12.0588 C.ar    1  UNL1        0.1036
     10 C          63.1023   87.5448   12.4071 C.ar    1  UNL1        0.0460
     11 C          63.9304   87.4208   13.6517 C.ar    1  UNL1        0.1222
     12 N          63.9217   85.9811   14.0726 N.ar    1  UNL1       -0.1635
     13 N          63.0884   85.2154   13.0881 N.ar    1  UNL1       -0.2281
     14 C          62.8103   83.7419   13.1262 C.ar    1  UNL1        0.0830
     15 C          62.2315   83.1196   14.3622 C.ar    1  UNL1        0.0215
     16 C          61.9534   81.6461   14.4003 C.ar    1  UNL1        0.0312
     17 C          62.2541   80.7948   13.2024 C.ar    1  UNL1        0.1402
     18 F          61.9759   79.3213   13.2405 F       1  UNL1       -0.2042
     19 C          62.8328   81.4171   11.9664 C.ar    1  UNL1        0.0312
     20 C          63.1109   82.8906   11.9283 C.ar    1  UNL1        0.0215
     21 C          65.2404   91.6306   12.6031 C.3     1  UNL1        0.0945
     22 C          66.1442   92.3547   11.6496 C.ar    1  UNL1       -0.0001
     23 C          67.5163   91.8201   11.3642 C.ar    1  UNL1        0.0181
     24 C          68.4200   92.5441   10.4108 C.ar    1  UNL1        0.1001
     25 N          67.9515   93.8027    9.7427 N.ar    1  UNL1       -0.2257
     26 C          66.5794   94.3373   10.0280 C.ar    1  UNL1        0.1860
     27 C          65.6757   93.6133   10.9815 C.ar    1  UNL1        0.0352
     28 S          66.1110   95.5960    9.3599 S.O2    1  UNL1        0.0268
     29 C          65.6426   96.8546    8.6917 C.3     1  UNL1        0.1834
     30 O          66.8380   95.2021    8.1084 O.2     1  UNL1       -0.1671
     31 O          65.3839   95.9898   10.6114 O.2     1  UNL1       -0.1671
     32 C          65.8835   92.4462   14.9846 C.3     1  UNL1        0.0021
     33 C          64.8572   92.2696   13.9050 C.3     1  UNL1        0.0241
@<TRIPOS>BOND
     1    32    33    1
     2    21    33    1
     3    21     1    1
     4     1     2   am
     5     2     3    2
     6     2     5    1
     7     5     6   ar
     8     6     7   ar
     9     7     8   ar
    10     8     9   ar
    11     9    10   ar
    12    10    11   ar
    13    11    12   ar
    14    12    13   ar
    15    13    14    1
    16    14    15   ar
    17    15    16   ar
    18    16    17   ar
    19    17    18    1
    20    17    19   ar
    21    19    20   ar
    22    21    22    1
    23    22    23   ar
    24    23    24   ar
    25    24    25   ar
    26    25    26   ar
    27    26    28    1
    28    28    29    1
    29    28    30    2
    30    28    31    2
    31    26    27   ar
    32    10     5   ar
    33    20    14   ar
    34    27    22   ar
    35    13     9   ar
    36     1     4    1
@<TRIPOS>MOLECULE
*****
 33 36 0 0 0
SMALL
GASTEIGER

@<TRIPOS>ATOM
      1 N          64.1312   88.5668   13.4395 N.am    1  UNL1       -0.2987
      2 C          63.6943   87.7663   14.6304 C.2     1  UNL1        0.2476
      3 O          63.0974   88.4573   15.8205 O.2     1  UNL1       -0.2701
      4 H          64.5230   88.1133   12.6584 H       1  UNL1        0.1500
      5 C          63.8543   86.2749   14.6313 C.ar    1  UNL1        0.0755
      6 C          64.5003   85.5905   15.7993 C.ar    1  UNL1        0.1035
      7 N          64.6603   84.0991   15.8001 N.ar    1  UNL1       -0.2406
      8 C          64.1743   83.2920   14.6329 C.ar    1  UNL1        0.1180
      9 C          63.5283   83.9763   13.4649 C.ar    1  UNL1        0.1036
     10 C          63.3683   85.4678   13.4641 C.ar    1  UNL1        0.0460
     11 C          62.6972   85.8613   12.1815 C.ar    1  UNL1        0.1222
     12 N          62.4425   84.6131   11.3897 N.ar    1  UNL1       -0.1635
     13 N          62.9561   83.4481   12.1829 N.ar    1  UNL1       -0.2281
     14 C          62.9063   82.0078   11.7670 C.ar    1  UNL1        0.0830
     15 C          63.2334   81.6231   10.3546 C.ar    1  UNL1        0.0215
     16 C          63.1836   80.1828    9.9388 C.ar    1  UNL1        0.0312
     17 C          62.8067   79.1270   10.9354 C.ar    1  UNL1        0.1402
     18 F          62.7569   77.6867   10.5196 F       1  UNL1       -0.2042
     19 C          62.4796   79.5117   12.3478 C.ar    1  UNL1        0.0312
     20 C          62.5294   80.9520   12.7637 C.ar    1  UNL1        0.0215
     21 C          63.9712   90.0582   13.4386 C.3     1  UNL1        0.0945
     22 C          64.6936   90.8907   14.4561 C.ar    1  UNL1       -0.0001
     23 C          63.9813   91.3456   15.6952 C.ar    1  UNL1        0.0181
     24 C          64.7036   92.1780   16.7127 C.ar    1  UNL1        0.1001
     25 N          66.1382   92.5555   16.4910 N.ar    1  UNL1       -0.2257
     26 C          66.8506   92.1005   15.2518 C.ar    1  UNL1        0.1860
     27 C          66.1283   91.2681   14.2344 C.ar    1  UNL1        0.0352
     28 S          68.2854   92.4780   15.0302 S.O2    1  UNL1        0.0268
     29 C          69.7200   92.8555   14.8086 C.3     1  UNL1        0.1834
     30 O          68.5207   92.4530   16.5114 O.2     1  UNL1       -0.1671
     31 O          68.0500   92.5030   13.5490 O.2     1  UNL1       -0.1671
     32 C          62.8656   90.0660   11.0874 C.3     1  UNL1        0.0021
     33 C          63.0888   90.7173   12.4202 C.3     1  UNL1        0.0241
@<TRIPOS>BOND
     1    32    33    1
     2    21    33    1
     3    21     1    1
     4     1     2   am
     5     2     3    2
     6     2     5    1
     7     5     6   ar
     8     6     7   ar
     9     7     8   ar
    10     8     9   ar
    11     9    10   ar
    12    10    11   ar
    13    11    12   ar
    14    12    13   ar
    15    13    14    1
    16    14    15   ar
    17    15    16   ar
    18    16    17   ar
    19    17    18    1
    20    17    19   ar
    21    19    20   ar
    22    21    22    1
    23    22    23   ar
    24    23    24   ar
    25    24    25   ar
    26    25    26   ar
    27    26    28    1
    28    28    29    1
    29    28    30    2
    30    28    31    2
    31    26    27   ar
    32    10     5   ar
    33    20    14   ar
    34    27    22   ar
    35    13     9   ar
    36     1     4    1
