@<TRIPOS>MOLECULE
*****
 36 40 0 0 0
SMALL
GASTEIGER

@<TRIPOS>ATOM
      1 C          63.9252   89.2482   15.5158 C.ar    1  UNL1        0.0842
      2 N          63.4212   89.8186   16.8083 N.ar    1  UNL1       -0.2437
      3 C          62.8358   88.9123   17.8504 C.ar    1  UNL1        0.0988
      4 C          62.7544   87.4356   17.6000 C.ar    1  UNL1        0.0207
      5 C          63.2584   86.8652   16.3075 C.ar    1  UNL1        0.0043
      6 C          63.1769   85.3885   16.0570 C.ar    1  UNL1        0.0203
      7 C          63.6809   84.8181   14.7645 C.ar    1  UNL1        0.1253
      8 C          64.2663   85.7244   13.7224 C.ar    1  UNL1        0.0202
      9 C          64.3477   87.2011   13.9728 C.ar    1  UNL1        0.0029
     10 C          63.8437   87.7715   15.2654 C.ar    1  UNL1        0.0179
     11 C          63.7287   90.4761   13.2346 C.ar    1  UNL1        0.1401
     12 C          64.3141   91.3823   12.1925 C.ar    1  UNL1        0.0378
     13 C          65.6814   91.9671   12.3895 C.ar    1  UNL1        0.0137
     14 C          66.4632   91.6455   13.6285 C.ar    1  UNL1        0.0579
     15 CL         67.8305   92.2301   13.8255 Cl      1  UNL1       -0.0822
     16 C          65.8778   90.7392   14.6707 C.ar    1  UNL1        0.0159
     17 C          64.5106   90.1545   14.4737 C.ar    1  UNL1        0.0524
     18 C          66.2667   92.8733   11.3473 C.ar    1  UNL1        0.0031
     19 C          65.9054   94.3290   11.3308 C.ar    1  UNL1        0.0002
     20 C          66.4907   95.2353   10.2887 C.ar    1  UNL1        0.0023
     21 C          67.4375   94.6859    9.2631 C.ar    1  UNL1        0.0296
     22 C          67.7988   93.2301    9.2797 C.ar    1  UNL1        0.1401
     23 F          68.7456   92.6806    8.2541 F       1  UNL1       -0.2042
     24 C          67.2135   92.3238   10.3218 C.ar    1  UNL1        0.0297
     25 C          61.9410   89.4073   11.6817 C.3     1  UNL1        0.2525
     26 O          62.3614   89.8914   13.0377 O.3     1  UNL1       -0.4714
     27 S          63.5995   83.3414   14.5141 S.O2    1  UNL1        0.0769
     28 O          62.1311   83.3706   14.8192 O.2     1  UNL1       -0.1498
     29 O          65.0678   83.3122   14.2090 O.2     1  UNL1       -0.1498
     30 N          63.5180   81.8647   14.2636 N.pl3   1  UNL1       -0.1687
     31 H          63.5863   81.2333   15.0159 H       1  UNL1        0.1783
     32 C          63.3326   81.3500   12.8669 C.ar    1  UNL1        0.3085
     33 N          63.6686   82.0863   11.6040 N.ar    1  UNL1       -0.1918
     34 C          63.3223   81.2000   10.4445 C.ar    1  UNL1        0.1441
     35 C          62.7722   79.9158   10.9908 C.ar    1  UNL1        0.2035
     36 O          62.7786   80.0085   12.4879 O.2     1  UNL1       -0.4196
@<TRIPOS>BOND
     1    25    26    1
     2    26    11    1
     3    11    12   ar
     4    12    13   ar
     5    13    18    1
     6    18    19   ar
     7    19    20   ar
     8    20    21   ar
     9    21    22   ar
    10    22    23    1
    11    22    24   ar
    12    13    14   ar
    13    14    15    1
    14    14    16   ar
    15    16    17   ar
    16    17     1    1
    17     1     2   ar
    18     2     3   ar
    19     3     4   ar
    20     4     5   ar
    21     5     6   ar
    22     6     7   ar
    23     7    27    1
    24    27    28    2
    25    27    29    2
    26    27    30    1
    27    30    32    1
    28    32    33   ar
    29    33    34   ar
    30    34    35   ar
    31    35    36   ar
    32     7     8   ar
    33     8     9   ar
    34     9    10   ar
    35    17    11   ar
    36    10     1   ar
    37    24    18   ar
    38    10     5   ar
    39    36    32   ar
    40    30    31    1
@<TRIPOS>MOLECULE
*****
 36 40 0 0 0
SMALL
GASTEIGER

@<TRIPOS>ATOM
      1 C          64.1100   90.1218   15.1752 C.ar    1  UNL1        0.0842
      2 N          63.5492   90.8857   16.3380 N.ar    1  UNL1       -0.2437
      3 C          62.9360   90.1504   17.4927 C.ar    1  UNL1        0.0988
      4 C          62.8836   88.6514   17.4846 C.ar    1  UNL1        0.0207
      5 C          63.4443   87.8876   16.3218 C.ar    1  UNL1        0.0043
      6 C          63.3919   86.3885   16.3138 C.ar    1  UNL1        0.0203
      7 C          63.9526   85.6247   15.1510 C.ar    1  UNL1        0.1253
      8 C          64.5659   86.3599   13.9962 C.ar    1  UNL1        0.0202
      9 C          64.6183   87.8590   14.0043 C.ar    1  UNL1        0.0029
     10 C          64.0575   88.6228   15.1671 C.ar    1  UNL1        0.0179
     11 C          66.0836   91.4732   14.1609 C.ar    1  UNL1        0.1401
     12 C          66.6969   92.2084   13.0062 C.ar    1  UNL1        0.0378
     13 C          65.9497   92.3275   11.7110 C.ar    1  UNL1        0.0137
     14 C          64.5893   91.7114   11.5705 C.ar    1  UNL1        0.0579
     15 CL         63.8422   91.8306   10.2753 Cl      1  UNL1       -0.0822
     16 C          63.9761   90.9762   12.7253 C.ar    1  UNL1        0.0159
     17 C          64.7232   90.8571   14.0204 C.ar    1  UNL1        0.0524
     18 C          66.5630   93.0627   10.5563 C.ar    1  UNL1        0.0031
     19 C          67.6462   92.4155    9.7453 C.ar    1  UNL1        0.0002
     20 C          68.2595   93.1507    8.5905 C.ar    1  UNL1        0.0023
     21 C          67.7895   94.5331    8.2468 C.ar    1  UNL1        0.0296
     22 C          66.7062   95.1803    9.0579 C.ar    1  UNL1        0.1401
     23 F          66.2363   96.5627    8.7142 F       1  UNL1       -0.2042
     24 C          66.0930   94.4451   10.2126 C.ar    1  UNL1        0.0297
     25 C          68.0833   92.1496   15.6754 C.3     1  UNL1        0.2525
     26 O          66.8308   91.3540   15.4562 O.3     1  UNL1       -0.4714
     27 S          63.9001   84.1256   15.1429 S.O2    1  UNL1        0.0769
     28 O          65.2466   84.0820   14.4833 O.2     1  UNL1       -0.1498
     29 O          62.5537   84.1692   15.8025 O.2     1  UNL1       -0.1498
     30 N          63.8477   82.6265   15.1348 N.pl3   1  UNL1       -0.1687
     31 H          64.0973   82.1209   15.9418 H       1  UNL1        0.1783
     32 C          63.4149   81.8979   13.8971 C.ar    1  UNL1        0.3085
     33 N          62.8916   80.4934   13.8384 N.ar    1  UNL1       -0.1918
     34 C          62.5826   80.1733   12.4059 C.ar    1  UNL1        0.1441
     35 C          62.9150   81.3801   11.5792 C.ar    1  UNL1        0.2035
     36 O          63.4293   82.4459   12.5009 O.2     1  UNL1       -0.4196
@<TRIPOS>BOND
     1    25    26    1
     2    26    11    1
     3    11    12   ar
     4    12    13   ar
     5    13    18    1
     6    18    19   ar
     7    19    20   ar
     8    20    21   ar
     9    21    22   ar
    10    22    23    1
    11    22    24   ar
    12    13    14   ar
    13    14    15    1
    14    14    16   ar
    15    16    17   ar
    16    17     1    1
    17     1     2   ar
    18     2     3   ar
    19     3     4   ar
    20     4     5   ar
    21     5     6   ar
    22     6     7   ar
    23     7    27    1
    24    27    28    2
    25    27    29    2
    26    27    30    1
    27    30    32    1
    28    32    33   ar
    29    33    34   ar
    30    34    35   ar
    31    35    36   ar
    32     7     8   ar
    33     8     9   ar
    34     9    10   ar
    35    17    11   ar
    36    10     1   ar
    37    24    18   ar
    38    10     5   ar
    39    36    32   ar
    40    30    31    1
@<TRIPOS>MOLECULE
*****
 36 40 0 0 0
SMALL
GASTEIGER

@<TRIPOS>ATOM
      1 C          62.5708   87.9861   11.2024 C.ar    1  UNL1        0.0842
      2 N          61.9519   88.5238    9.9463 N.ar    1  UNL1       -0.2437
      3 C          61.9613   89.9995    9.6778 C.ar    1  UNL1        0.0988
      4 C          62.5895   90.9375   10.6655 C.ar    1  UNL1        0.0207
      5 C          63.2083   90.3998   11.9216 C.ar    1  UNL1        0.0043
      6 C          63.8365   91.3379   12.9092 C.ar    1  UNL1        0.0203
      7 C          64.4554   90.8002   14.1653 C.ar    1  UNL1        0.1253
      8 C          64.4461   89.3244   14.4339 C.ar    1  UNL1        0.0202
      9 C          63.8179   88.3864   13.4462 C.ar    1  UNL1        0.0029
     10 C          63.1990   88.9241   12.1900 C.ar    1  UNL1        0.0179
     11 C          62.4208   85.5420   10.3340 C.ar    1  UNL1        0.1401
     12 C          62.4114   84.0663   10.6024 C.ar    1  UNL1        0.0378
     13 C          62.5428   83.5588   12.0079 C.ar    1  UNL1        0.0137
     14 C          62.6835   84.5271   13.1448 C.ar    1  UNL1        0.0579
     15 CL         62.8149   84.0196   14.5502 Cl      1  UNL1       -0.0822
     16 C          62.6929   86.0029   12.8763 C.ar    1  UNL1        0.0159
     17 C          62.5615   86.5103   11.4709 C.ar    1  UNL1        0.0524
     18 C          62.5335   82.0831   12.2764 C.ar    1  UNL1        0.0031
     19 C          62.2782   81.5749   13.6643 C.ar    1  UNL1        0.0002
     20 C          62.2689   80.0991   13.9329 C.ar    1  UNL1        0.0023
     21 C          62.5148   79.1315   12.8133 C.ar    1  UNL1        0.0296
     22 C          62.7701   79.6398   11.4253 C.ar    1  UNL1        0.1401
     23 F          63.0161   78.6722   10.3058 F       1  UNL1       -0.2042
     24 C          62.7795   81.1155   11.1568 C.ar    1  UNL1        0.0297
     25 C          62.8331   85.2436    7.7862 C.3     1  UNL1        0.2525
     26 O          62.2894   86.0495    8.9285 O.3     1  UNL1       -0.4714
     27 S          65.0836   91.7382   15.1530 S.O2    1  UNL1        0.0769
     28 O          63.9209   91.5409   16.0799 O.2     1  UNL1       -0.1498
     29 O          66.2463   91.9356   14.2260 O.2     1  UNL1       -0.1498
     30 N          65.7118   92.6763   16.1406 N.pl3   1  UNL1       -0.1687
     31 H          65.1570   93.1116   16.8277 H       1  UNL1        0.1783
     32 C          67.1853   92.9510   16.0815 C.ar    1  UNL1        0.3085
     33 N          68.2784   91.9636   16.3645 N.ar    1  UNL1       -0.1918
     34 C          69.5930   92.6638   16.1869 C.ar    1  UNL1        0.1441
     35 C          69.3123   94.0841   15.7941 C.ar    1  UNL1        0.2035
     36 O          67.8243   94.2615   15.7290 O.2     1  UNL1       -0.4196
@<TRIPOS>BOND
     1    25    26    1
     2    26    11    1
     3    11    12   ar
     4    12    13   ar
     5    13    18    1
     6    18    19   ar
     7    19    20   ar
     8    20    21   ar
     9    21    22   ar
    10    22    23    1
    11    22    24   ar
    12    13    14   ar
    13    14    15    1
    14    14    16   ar
    15    16    17   ar
    16    17     1    1
    17     1     2   ar
    18     2     3   ar
    19     3     4   ar
    20     4     5   ar
    21     5     6   ar
    22     6     7   ar
    23     7    27    1
    24    27    28    2
    25    27    29    2
    26    27    30    1
    27    30    32    1
    28    32    33   ar
    29    33    34   ar
    30    34    35   ar
    31    35    36   ar
    32     7     8   ar
    33     8     9   ar
    34     9    10   ar
    35    17    11   ar
    36    10     1   ar
    37    24    18   ar
    38    10     5   ar
    39    36    32   ar
    40    30    31    1
