@<TRIPOS>MOLECULE
*****
 41 45 0 0 0
SMALL
GASTEIGER

@<TRIPOS>ATOM
      1 N          62.8133   88.7757   11.8286 N.ar    1  UNL1       -0.2823
      2 C          61.9378   88.8928   10.6163 C.ar    1  UNL1        0.1831
      3 N          61.5073   87.5116   10.2203 N.ar    1  UNL1       -0.2236
      4 C          62.1167   86.5408   11.1878 C.ar    1  UNL1        0.0991
      5 C          62.0410   85.0464   11.2922 C.ar    1  UNL1        0.0206
      6 C          62.7724   84.3333   12.3905 C.ar    1  UNL1        0.0017
      7 C          63.5795   85.1145   13.3846 C.ar    1  UNL1        0.0016
      8 C          63.6553   86.6090   13.2803 C.ar    1  UNL1        0.0191
      9 C          62.9239   87.3221   12.1819 C.ar    1  UNL1        0.0835
     10 C          62.6967   82.8388   12.4949 C.ar    1  UNL1        0.0044
     11 C          62.3451   82.1952   13.8034 C.ar    1  UNL1        0.0208
     12 C          62.2693   80.7008   13.9078 C.ar    1  UNL1        0.1003
     13 N          62.5452   79.8499   12.7037 N.ar    1  UNL1       -0.2294
     14 C          62.8968   80.4934   11.3952 C.ar    1  UNL1        0.1286
     15 C          62.9725   81.9879   11.2908 C.ar    1  UNL1        0.0341
     16 N          63.1726   79.6426   10.1911 N.pl3   1  UNL1       -0.3160
     17 H          63.7871   79.9633    9.4920 H       1  UNL1        0.1483
     18 C          62.5123   78.3030   10.0521 C.3     1  UNL1        0.1203
     19 C          63.2620   77.0558   10.4164 C.3     1  UNL1        0.1583
     20 O          62.6771   75.7106   10.1028 O.3     1  UNL1       -0.3802
     21 H          61.8736   75.5766   10.6294 H       1  UNL1        0.2105
     22 C          64.6636   91.9695   13.0294 C.ar    1  UNL1        0.1512
     23 C          64.1674   91.0781   11.9298 C.ar    1  UNL1        0.0619
     24 C          63.4639   89.9126   12.5595 C.ar    1  UNL1        0.0987
     25 S          63.5253   90.0835   14.0484 S.2     1  UNL1       -0.0618
     26 C          64.2668   91.3547   14.3389 C.ar    1  UNL1        0.1178
     27 C          64.5599   91.9132   15.6999 C.2     1  UNL1        0.2518
     28 N          65.8637   92.6073   15.9609 N.am    1  UNL1       -0.3248
     29 O          63.5491   91.7774   16.7999 O.2     1  UNL1       -0.2697
     30 H          66.5271   92.6964   15.2390 H       1  UNL1        0.1453
     31 H          66.0561   92.9738   16.8542 H       1  UNL1        0.1453
     32 O          65.4232   93.2504   12.8510 O.3     1  UNL1       -0.4740
     33 C          67.8272   92.3332   12.4913 C.3     1  UNL1        0.0523
     34 C          66.7154   93.2563   12.0893 C.3     1  UNL1        0.1891
     35 C          66.8957   94.1854   10.9256 C.ar    1  UNL1        0.0278
     36 C          66.4866   95.6237   11.0437 C.ar    1  UNL1        0.0000
     37 C          66.6669   96.5527    9.8799 C.ar    1  UNL1       -0.0002
     38 C          67.2564   96.0435    8.5981 C.ar    1  UNL1        0.0008
     39 C          67.6655   94.6053    8.4799 C.ar    1  UNL1        0.0112
     40 C          67.4852   93.6762    9.6437 C.ar    1  UNL1        0.0570
     41 CL         67.8943   92.2380    9.5256 Cl      1  UNL1       -0.0825
@<TRIPOS>BOND
     1    34    33    1
     2    34    32    1
     3    32    22    1
     4    22    23   ar
     5    23    24   ar
     6    24     1    1
     7     1     2   ar
     8     2     3   ar
     9     3     4   ar
    10     4     5   ar
    11     5     6   ar
    12     6    10    1
    13    10    11   ar
    14    11    12   ar
    15    12    13   ar
    16    13    14   ar
    17    14    16    1
    18    16    18    1
    19    18    19    1
    20    19    20    1
    21    14    15   ar
    22     6     7   ar
    23     7     8   ar
    24     8     9   ar
    25    24    25   ar
    26    25    26   ar
    27    26    27    1
    28    27    28   am
    29    27    29    2
    30    34    35    1
    31    35    36   ar
    32    36    37   ar
    33    37    38   ar
    34    38    39   ar
    35    39    40   ar
    36    40    41    1
    37    26    22   ar
    38    40    35   ar
    39     9     1   ar
    40     9     4   ar
    41    15    10   ar
    42    16    17    1
    43    20    21    1
    44    28    30    1
    45    28    31    1
@<TRIPOS>MOLECULE
*****
 41 45 0 0 0
SMALL
GASTEIGER

@<TRIPOS>ATOM
      1 N          63.7909   87.6591   14.4565 N.ar    1  UNL1       -0.2823
      2 C          63.9891   87.5232   15.9371 C.ar    1  UNL1        0.1831
      3 N          63.8185   86.0770   16.2967 N.ar    1  UNL1       -0.2236
      4 C          63.5150   85.3190   15.0384 C.ar    1  UNL1        0.0991
      5 C          63.2519   83.8649   14.7813 C.ar    1  UNL1        0.0206
      6 C          62.9719   83.3885   13.3868 C.ar    1  UNL1        0.0017
      7 C          62.9548   84.3663   12.2494 C.ar    1  UNL1        0.0016
      8 C          63.2179   85.8205   12.5065 C.ar    1  UNL1        0.0191
      9 C          63.4980   86.2969   13.9010 C.ar    1  UNL1        0.0835
     10 C          62.7088   81.9343   13.1296 C.ar    1  UNL1        0.0044
     11 C          62.1152   81.0773   14.2082 C.ar    1  UNL1        0.0208
     12 C          61.8522   79.6232   13.9511 C.ar    1  UNL1        0.1003
     13 N          62.1826   79.0259   12.6153 N.ar    1  UNL1       -0.2294
     14 C          62.7762   79.8828   11.5368 C.ar    1  UNL1        0.1286
     15 C          63.0393   81.3371   11.7939 C.ar    1  UNL1        0.0341
     16 N          63.1067   79.2856   10.2011 N.pl3   1  UNL1       -0.3160
     17 H          63.5567   79.8308    9.5159 H       1  UNL1        0.1483
     18 C          62.7514   77.8578    9.9094 C.3     1  UNL1        0.1203
     19 C          63.7830   76.7806   10.0693 C.3     1  UNL1        0.1583
     20 O          64.8529   76.6069    9.0324 O.3     1  UNL1       -0.3802
     21 H          64.4502   76.3233    8.1967 H       1  UNL1        0.2105
     22 C          64.4343   91.1939   12.9879 C.ar    1  UNL1        0.1512
     23 C          64.6286   90.1669   14.0638 C.ar    1  UNL1        0.0619
     24 C          63.8716   88.9335   13.6694 C.ar    1  UNL1        0.0987
     25 S          63.2095   89.1981   12.3497 S.2     1  UNL1       -0.0618
     26 C          63.5573   90.5951   11.9286 C.ar    1  UNL1        0.1178
     27 C          63.1070   91.2742   10.6691 C.2     1  UNL1        0.2518
     28 N          63.9492   92.3538   10.0568 N.am    1  UNL1       -0.3248
     29 O          61.8144   90.8735   10.0219 O.2     1  UNL1       -0.2697
     30 H          64.7976   92.6168   10.4815 H       1  UNL1        0.1453
     31 H          63.6537   92.7995    9.2302 H       1  UNL1        0.1453
     32 O          65.0151   92.5768   12.9738 O.3     1  UNL1       -0.4740
     33 C          67.4117   92.6691   13.9729 C.3     1  UNL1        0.0523
     34 C          66.4917   92.7683   12.7923 C.3     1  UNL1        0.1891
     35 C          67.0483   93.0590   11.4300 C.ar    1  UNL1        0.0278
     36 C          67.8048   91.9982   10.6869 C.ar    1  UNL1        0.0000
     37 C          68.3614   92.2889    9.3247 C.ar    1  UNL1       -0.0002
     38 C          68.1616   93.6405    8.7056 C.ar    1  UNL1        0.0008
     39 C          67.4052   94.7013    9.4487 C.ar    1  UNL1        0.0112
     40 C          66.8485   94.4106   10.8110 C.ar    1  UNL1        0.0570
     41 CL         66.0921   95.4715   11.5541 Cl      1  UNL1       -0.0825
@<TRIPOS>BOND
     1    34    33    1
     2    34    32    1
     3    32    22    1
     4    22    23   ar
     5    23    24   ar
     6    24     1    1
     7     1     2   ar
     8     2     3   ar
     9     3     4   ar
    10     4     5   ar
    11     5     6   ar
    12     6    10    1
    13    10    11   ar
    14    11    12   ar
    15    12    13   ar
    16    13    14   ar
    17    14    16    1
    18    16    18    1
    19    18    19    1
    20    19    20    1
    21    14    15   ar
    22     6     7   ar
    23     7     8   ar
    24     8     9   ar
    25    24    25   ar
    26    25    26   ar
    27    26    27    1
    28    27    28   am
    29    27    29    2
    30    34    35    1
    31    35    36   ar
    32    36    37   ar
    33    37    38   ar
    34    38    39   ar
    35    39    40   ar
    36    40    41    1
    37    26    22   ar
    38    40    35   ar
    39     9     1   ar
    40     9     4   ar
    41    15    10   ar
    42    16    17    1
    43    20    21    1
    44    28    30    1
    45    28    31    1
@<TRIPOS>MOLECULE
*****
 41 45 0 0 0
SMALL
GASTEIGER

@<TRIPOS>ATOM
      1 N          59.1191   90.5865    5.7633 N.ar    1  UNL1       -0.2823
      2 C          57.7053   91.0517    5.5770 C.ar    1  UNL1        0.1831
      3 N          57.6791   92.0015    4.4163 N.ar    1  UNL1       -0.2236
      4 C          59.0766   92.1233    3.8852 C.ar    1  UNL1        0.0991
      5 C          59.6537   92.9175    2.7512 C.ar    1  UNL1        0.0206
      6 C          61.1208   92.8371    2.4496 C.ar    1  UNL1        0.0017
      7 C          62.0109   91.9626    3.2820 C.ar    1  UNL1        0.0016
      8 C          61.4338   91.1684    4.4161 C.ar    1  UNL1        0.0191
      9 C          59.9666   91.2487    4.7177 C.ar    1  UNL1        0.0835
     10 C          61.6980   93.6314    1.3155 C.ar    1  UNL1        0.0044
     11 C          62.2202   95.0163    1.5591 C.ar    1  UNL1        0.0208
     12 C          62.7974   95.8105    0.4251 C.ar    1  UNL1        0.1003
     13 N          62.8523   95.2199   -0.9526 N.ar    1  UNL1       -0.2294
     14 C          62.3301   93.8350   -1.1963 C.ar    1  UNL1        0.1286
     15 C          61.7530   93.0407   -0.0622 C.ar    1  UNL1        0.0341
     16 N          62.3851   93.2443   -2.5740 N.pl3   1  UNL1       -0.3160
     17 H          61.9388   92.3867   -2.7601 H       1  UNL1        0.1483
     18 C          63.1201   93.9602   -3.6681 C.3     1  UNL1        0.1203
     19 C          64.3700   93.3653   -4.2461 C.3     1  UNL1        0.1583
     20 O          64.8623   92.0350   -3.7585 O.3     1  UNL1       -0.3802
     21 H          65.1329   92.1108   -2.8301 H       1  UNL1        0.2105
     22 C          60.4732   88.7251    8.8886 C.ar    1  UNL1        0.1512
     23 C          60.0958   89.9918    8.1793 C.ar    1  UNL1        0.0619
     24 C          59.6009   89.6273    6.8111 C.ar    1  UNL1        0.0987
     25 S          59.6723   88.1353    6.6746 S.2     1  UNL1       -0.0618
     26 C          60.2114   87.5777    7.9585 C.ar    1  UNL1        0.1178
     27 C          60.4473   86.1272    8.2596 C.2     1  UNL1        0.2518
     28 N          60.9953   85.7177    9.5945 N.am    1  UNL1       -0.3248
     29 O          60.1352   85.0862    7.2257 O.2     1  UNL1       -0.2697
     30 H          61.2002   86.4010   10.2731 H       1  UNL1        0.1453
     31 H          61.1501   84.7658    9.7921 H       1  UNL1        0.1453
     32 O          61.0168   88.6236   10.2828 O.3     1  UNL1       -0.4740
     33 C          59.8478   90.3489   11.8342 C.3     1  UNL1        0.0523
     34 C          61.0847   89.8441   11.1521 C.3     1  UNL1        0.1891
     35 C          62.3895   90.5599   11.3392 C.ar    1  UNL1        0.0278
     36 C          63.0134   91.2948   10.1899 C.ar    1  UNL1        0.0000
     37 C          64.3182   92.0106   10.3771 C.ar    1  UNL1       -0.0002
     38 C          64.9992   91.9916   11.7134 C.ar    1  UNL1        0.0008
     39 C          64.3753   91.2568   12.8627 C.ar    1  UNL1        0.0112
     40 C          63.0704   90.5409   12.6756 C.ar    1  UNL1        0.0570
     41 CL         62.4466   89.8062   13.8248 Cl      1  UNL1       -0.0825
@<TRIPOS>BOND
     1    34    33    1
     2    34    32    1
     3    32    22    1
     4    22    23   ar
     5    23    24   ar
     6    24     1    1
     7     1     2   ar
     8     2     3   ar
     9     3     4   ar
    10     4     5   ar
    11     5     6   ar
    12     6    10    1
    13    10    11   ar
    14    11    12   ar
    15    12    13   ar
    16    13    14   ar
    17    14    16    1
    18    16    18    1
    19    18    19    1
    20    19    20    1
    21    14    15   ar
    22     6     7   ar
    23     7     8   ar
    24     8     9   ar
    25    24    25   ar
    26    25    26   ar
    27    26    27    1
    28    27    28   am
    29    27    29    2
    30    34    35    1
    31    35    36   ar
    32    36    37   ar
    33    37    38   ar
    34    38    39   ar
    35    39    40   ar
    36    40    41    1
    37    26    22   ar
    38    40    35   ar
    39     9     1   ar
    40     9     4   ar
    41    15    10   ar
    42    16    17    1
    43    20    21    1
    44    28    30    1
    45    28    31    1
@<TRIPOS>MOLECULE
*****
 41 45 0 0 0
SMALL
GASTEIGER

@<TRIPOS>ATOM
      1 N          63.7228   88.4553   15.5402 N.ar    1  UNL1       -0.2823
      2 C          63.1880   88.2928   16.9321 C.ar    1  UNL1        0.1831
      3 N          62.7186   86.8765   17.0859 N.ar    1  UNL1       -0.2236
      4 C          62.9633   86.1636   15.7890 C.ar    1  UNL1        0.0991
      5 C          62.7011   84.7521   15.3546 C.ar    1  UNL1        0.0206
      6 C          63.0596   84.3163   13.9649 C.ar    1  UNL1        0.0017
      7 C          63.6803   85.2920   13.0095 C.ar    1  UNL1        0.0016
      8 C          63.9424   86.7036   13.4439 C.ar    1  UNL1        0.0191
      9 C          63.5839   87.1394   14.8337 C.ar    1  UNL1        0.0835
     10 C          62.7975   82.9047   13.5304 C.ar    1  UNL1        0.0044
     11 C          62.1467   81.9379   14.4747 C.ar    1  UNL1        0.0208
     12 C          61.8845   80.5263   14.0403 C.ar    1  UNL1        0.1003
     13 N          62.2732   80.0815   12.6615 N.ar    1  UNL1       -0.2294
     14 C          62.9240   81.0483   11.7171 C.ar    1  UNL1        0.1286
     15 C          63.1861   82.4599   12.1516 C.ar    1  UNL1        0.0341
     16 N          63.3126   80.6035   10.3383 N.pl3   1  UNL1       -0.3160
     17 H          63.9752   81.1184    9.8234 H       1  UNL1        0.1483
     18 C          62.6918   79.3741    9.7441 C.3     1  UNL1        0.1203
     19 C          62.6485   78.0993   10.5335 C.3     1  UNL1        0.1583
     20 O          63.5449   76.9558   10.1612 O.3     1  UNL1       -0.3802
     21 H          63.2900   76.6156    9.2894 H       1  UNL1        0.2105
     22 C          64.9408   91.4405   13.3790 C.ar    1  UNL1        0.1512
     23 C          64.2493   90.1162   13.5131 C.ar    1  UNL1        0.0619
     24 C          64.2959   89.7129   14.9570 C.ar    1  UNL1        0.0987
     25 S          65.0162   90.7879   15.7155 S.2     1  UNL1       -0.0618
     26 C          65.4148   91.8557   14.7403 C.ar    1  UNL1        0.1178
     27 C          66.1571   93.1172   15.0687 C.2     1  UNL1        0.2518
     28 N          66.9193   93.2254   16.3561 N.am    1  UNL1       -0.3248
     29 O          66.1372   94.2704   14.1096 O.2     1  UNL1       -0.2697
     30 H          66.9323   92.4685   16.9855 H       1  UNL1        0.1453
     31 H          67.4064   94.0534   16.5716 H       1  UNL1        0.1453
     32 O          65.1259   92.2138   12.1072 O.3     1  UNL1       -0.4740
     33 C          67.6952   91.8359   12.1824 C.3     1  UNL1        0.0523
     34 C          66.5059   92.5729   11.6418 C.3     1  UNL1        0.1891
     35 C          66.6965   93.6690   10.6357 C.ar    1  UNL1        0.0278
     36 C          66.0096   94.9889   10.8252 C.ar    1  UNL1        0.0000
     37 C          66.2002   96.0850    9.8191 C.ar    1  UNL1       -0.0002
     38 C          67.0779   95.8611    8.6235 C.ar    1  UNL1        0.0008
     39 C          67.7648   94.5413    8.4339 C.ar    1  UNL1        0.0112
     40 C          67.5742   93.4451    9.4400 C.ar    1  UNL1        0.0570
     41 CL         68.2611   92.1253    9.2504 Cl      1  UNL1       -0.0825
@<TRIPOS>BOND
     1    34    33    1
     2    34    32    1
     3    32    22    1
     4    22    23   ar
     5    23    24   ar
     6    24     1    1
     7     1     2   ar
     8     2     3   ar
     9     3     4   ar
    10     4     5   ar
    11     5     6   ar
    12     6    10    1
    13    10    11   ar
    14    11    12   ar
    15    12    13   ar
    16    13    14   ar
    17    14    16    1
    18    16    18    1
    19    18    19    1
    20    19    20    1
    21    14    15   ar
    22     6     7   ar
    23     7     8   ar
    24     8     9   ar
    25    24    25   ar
    26    25    26   ar
    27    26    27    1
    28    27    28   am
    29    27    29    2
    30    34    35    1
    31    35    36   ar
    32    36    37   ar
    33    37    38   ar
    34    38    39   ar
    35    39    40   ar
    36    40    41    1
    37    26    22   ar
    38    40    35   ar
    39     9     1   ar
    40     9     4   ar
    41    15    10   ar
    42    16    17    1
    43    20    21    1
    44    28    30    1
    45    28    31    1
@<TRIPOS>MOLECULE
*****
 41 45 0 0 0
SMALL
GASTEIGER

@<TRIPOS>ATOM
      1 N          59.1417   90.5777    5.7630 N.ar    1  UNL1       -0.2823
      2 C          57.7346   91.0556    5.5592 C.ar    1  UNL1        0.1831
      3 N          57.7316   92.0070    4.3995 N.ar    1  UNL1       -0.2236
      4 C          59.1369   92.1171    3.8867 C.ar    1  UNL1        0.0991
      5 C          59.7356   92.9076    2.7612 C.ar    1  UNL1        0.0206
      6 C          61.2057   92.8148    2.4785 C.ar    1  UNL1        0.0017
      7 C          62.0772   91.9315    3.3212 C.ar    1  UNL1        0.0016
      8 C          61.4786   91.1410    4.4467 C.ar    1  UNL1        0.0191
      9 C          60.0084   91.2338    4.7294 C.ar    1  UNL1        0.0835
     10 C          61.8044   93.6054    1.3530 C.ar    1  UNL1        0.0044
     11 C          63.2923   93.7737    1.2632 C.ar    1  UNL1        0.0208
     12 C          63.8910   94.5642    0.1378 C.ar    1  UNL1        0.1003
     13 N          63.0019   95.1864   -0.8979 N.ar    1  UNL1       -0.2294
     14 C          61.5141   95.0181   -0.8080 C.ar    1  UNL1        0.1286
     15 C          60.9154   94.2275    0.3175 C.ar    1  UNL1        0.0341
     16 N          60.6250   95.6402   -1.8436 N.pl3   1  UNL1       -0.3160
     17 H          60.8980   95.6428   -2.7895 H       1  UNL1        0.1483
     18 C          59.3200   96.2585   -1.4379 C.3     1  UNL1        0.1203
     19 C          58.0329   95.5349   -1.7025 C.3     1  UNL1        0.1583
     20 O          56.9176   95.5981   -0.7015 O.3     1  UNL1       -0.3802
     21 H          57.1902   95.1511    0.1151 H       1  UNL1        0.2105
     22 C          60.4149   88.6986    8.9117 C.ar    1  UNL1        0.1512
     23 C          60.0430   89.9682    8.2046 C.ar    1  UNL1        0.0619
     24 C          59.6015   89.6131    6.8157 C.ar    1  UNL1        0.0987
     25 S          59.7004   88.1241    6.6644 S.2     1  UNL1       -0.0618
     26 C          60.2031   87.5589    7.9597 C.ar    1  UNL1        0.1178
     27 C          60.4507   86.1085    8.2518 C.2     1  UNL1        0.2518
     28 N          61.0315   85.6979    9.5724 N.am    1  UNL1       -0.3248
     29 O          60.1173   85.0688    7.2233 O.2     1  UNL1       -0.2697
     30 H          61.2503   86.3803   10.2475 H       1  UNL1        0.1453
     31 H          61.1940   84.7460    9.7641 H       1  UNL1        0.1453
     32 O          60.9113   88.5882   10.3227 O.3     1  UNL1       -0.4740
     33 C          59.6265   90.5744   11.3971 C.3     1  UNL1        0.0523
     34 C          60.8926   89.7897   11.2206 C.3     1  UNL1        0.1891
     35 C          62.1400   90.2064   11.9419 C.ar    1  UNL1        0.0278
     36 C          62.3544   89.7952   13.3684 C.ar    1  UNL1        0.0000
     37 C          63.6018   90.2119   14.0898 C.ar    1  UNL1       -0.0002
     38 C          64.6348   91.0398   13.3845 C.ar    1  UNL1        0.0008
     39 C          64.4206   91.4509   11.9581 C.ar    1  UNL1        0.0112
     40 C          63.1731   91.0342   11.2367 C.ar    1  UNL1        0.0570
     41 CL         62.9588   91.4454    9.8102 Cl      1  UNL1       -0.0825
@<TRIPOS>BOND
     1    34    33    1
     2    34    32    1
     3    32    22    1
     4    22    23   ar
     5    23    24   ar
     6    24     1    1
     7     1     2   ar
     8     2     3   ar
     9     3     4   ar
    10     4     5   ar
    11     5     6   ar
    12     6    10    1
    13    10    11   ar
    14    11    12   ar
    15    12    13   ar
    16    13    14   ar
    17    14    16    1
    18    16    18    1
    19    18    19    1
    20    19    20    1
    21    14    15   ar
    22     6     7   ar
    23     7     8   ar
    24     8     9   ar
    25    24    25   ar
    26    25    26   ar
    27    26    27    1
    28    27    28   am
    29    27    29    2
    30    34    35    1
    31    35    36   ar
    32    36    37   ar
    33    37    38   ar
    34    38    39   ar
    35    39    40   ar
    36    40    41    1
    37    26    22   ar
    38    40    35   ar
    39     9     1   ar
    40     9     4   ar
    41    15    10   ar
    42    16    17    1
    43    20    21    1
    44    28    30    1
    45    28    31    1
@<TRIPOS>MOLECULE
*****
 41 45 0 0 0
SMALL
GASTEIGER

@<TRIPOS>ATOM
      1 N          63.0084   86.1752   15.6333 N.ar    1  UNL1       -0.2823
      2 C          62.6371   86.3769   17.0725 C.ar    1  UNL1        0.1831
      3 N          63.0315   87.7707   17.4619 N.ar    1  UNL1       -0.2236
      4 C          63.6466   88.4304   16.2634 C.ar    1  UNL1        0.0991
      5 C          64.2178   89.8016   16.0551 C.ar    1  UNL1        0.0206
      6 C          64.7748   90.1867   14.7167 C.ar    1  UNL1        0.0017
      7 C          64.7604   89.2006   13.5865 C.ar    1  UNL1        0.0016
      8 C          64.1892   87.8294   13.7947 C.ar    1  UNL1        0.0191
      9 C          63.6323   87.4443   15.1332 C.ar    1  UNL1        0.0835
     10 C          65.3460   91.5580   14.5084 C.ar    1  UNL1        0.0044
     11 C          65.9767   92.2900   15.6557 C.ar    1  UNL1        0.0208
     12 C          66.5480   93.6612   15.4475 C.ar    1  UNL1        0.1003
     13 N          66.4886   94.3005   14.0918 N.ar    1  UNL1       -0.2294
     14 C          65.8579   93.5685   12.9444 C.ar    1  UNL1        0.1286
     15 C          65.2866   92.1972   13.1527 C.ar    1  UNL1        0.0341
     16 N          65.7985   94.2078   11.5888 N.pl3   1  UNL1       -0.3160
     17 H          65.4581   95.1265   11.4923 H       1  UNL1        0.1483
     18 C          66.2577   93.4472   10.3802 C.3     1  UNL1        0.1203
     19 C          67.2574   94.0592    9.4441 C.3     1  UNL1        0.1583
     20 O          68.7256   93.8784    9.6921 O.3     1  UNL1       -0.3802
     21 H          68.9732   94.3319   10.5130 H       1  UNL1        0.2105
     22 C          62.6188   83.3741   12.9747 C.ar    1  UNL1        0.1512
     23 C          62.9196   84.7962   13.3452 C.ar    1  UNL1        0.0619
     24 C          62.7935   84.9240   14.8343 C.ar    1  UNL1        0.0987
     25 S          62.4147   83.5808   15.3844 S.2     1  UNL1       -0.0618
     26 C          62.3068   82.6230   14.2351 C.ar    1  UNL1        0.1178
     27 C          61.9495   81.1691   14.3296 C.2     1  UNL1        0.2518
     28 N          60.5155   80.7411   14.2281 N.am    1  UNL1       -0.3248
     29 O          63.0264   80.1434   14.5256 O.2     1  UNL1       -0.2697
     30 H          59.8088   81.4143   14.0994 H       1  UNL1        0.1453
     31 H          60.2811   79.7869   14.2901 H       1  UNL1        0.1453
     32 O          62.6283   82.8034   11.5876 O.3     1  UNL1       -0.4740
     33 C          64.3482   83.2501    9.6922 C.3     1  UNL1        0.0523
     34 C          63.1050   83.6384   10.4363 C.3     1  UNL1        0.1891
     35 C          62.3384   84.8617   10.0291 C.ar    1  UNL1        0.0278
     36 C          61.6417   85.6904   11.0673 C.ar    1  UNL1        0.0000
     37 C          60.8751   86.9137   10.6600 C.ar    1  UNL1       -0.0002
     38 C          60.8053   87.3084    9.2146 C.ar    1  UNL1        0.0008
     39 C          61.5020   86.4798    8.1764 C.ar    1  UNL1        0.0112
     40 C          62.2686   85.2564    8.5836 C.ar    1  UNL1        0.0570
     41 CL         62.9653   84.4278    7.5455 Cl      1  UNL1       -0.0825
@<TRIPOS>BOND
     1    34    33    1
     2    34    32    1
     3    32    22    1
     4    22    23   ar
     5    23    24   ar
     6    24     1    1
     7     1     2   ar
     8     2     3   ar
     9     3     4   ar
    10     4     5   ar
    11     5     6   ar
    12     6    10    1
    13    10    11   ar
    14    11    12   ar
    15    12    13   ar
    16    13    14   ar
    17    14    16    1
    18    16    18    1
    19    18    19    1
    20    19    20    1
    21    14    15   ar
    22     6     7   ar
    23     7     8   ar
    24     8     9   ar
    25    24    25   ar
    26    25    26   ar
    27    26    27    1
    28    27    28   am
    29    27    29    2
    30    34    35    1
    31    35    36   ar
    32    36    37   ar
    33    37    38   ar
    34    38    39   ar
    35    39    40   ar
    36    40    41    1
    37    26    22   ar
    38    40    35   ar
    39     9     1   ar
    40     9     4   ar
    41    15    10   ar
    42    16    17    1
    43    20    21    1
    44    28    30    1
    45    28    31    1
@<TRIPOS>MOLECULE
*****
 41 45 0 0 0
SMALL
GASTEIGER

@<TRIPOS>ATOM
      1 N          59.1857   90.2813    6.1980 N.ar    1  UNL1       -0.2823
      2 C          57.7560   90.6537    5.9389 C.ar    1  UNL1        0.1831
      3 N          57.7162   91.5125    4.7097 N.ar    1  UNL1       -0.2236
      4 C          59.1214   91.6710    4.2092 C.ar    1  UNL1        0.0991
      5 C          59.6912   92.4099    3.0348 C.ar    1  UNL1        0.0206
      6 C          61.1692   92.3878    2.7802 C.ar    1  UNL1        0.0017
      7 C          62.0774   91.6269    3.7000 C.ar    1  UNL1        0.0016
      8 C          61.5076   90.8880    4.8745 C.ar    1  UNL1        0.0191
      9 C          60.0296   90.9101    5.1291 C.ar    1  UNL1        0.0835
     10 C          61.7391   93.1267    1.6057 C.ar    1  UNL1        0.0044
     11 C          62.8995   94.0578    1.7967 C.ar    1  UNL1        0.0208
     12 C          63.4694   94.7967    0.6223 C.ar    1  UNL1        0.1003
     13 N          62.8788   94.6045   -0.7432 N.ar    1  UNL1       -0.2294
     14 C          61.7184   93.6734   -0.9341 C.ar    1  UNL1        0.1286
     15 C          61.1485   92.9345    0.2404 C.ar    1  UNL1        0.0341
     16 N          61.1278   93.4812   -2.2995 N.pl3   1  UNL1       -0.3160
     17 H          61.6106   92.9517   -2.9746 H       1  UNL1        0.1483
     18 C          59.8016   94.0958   -2.6363 C.3     1  UNL1        0.1203
     19 C          58.5722   93.2387   -2.7000 C.3     1  UNL1        0.1583
     20 O          58.4394   92.0495   -1.7955 O.3     1  UNL1       -0.3802
     21 H          59.1101   91.3889   -2.0293 H       1  UNL1        0.2105
     22 C          60.3420   87.5044    8.6511 C.ar    1  UNL1        0.1512
     23 C          59.8004   87.9343    7.3200 C.ar    1  UNL1        0.0619
     24 C          59.6842   89.4298    7.3278 C.ar    1  UNL1        0.0987
     25 S          60.1540   89.9242    8.6638 S.2     1  UNL1       -0.0618
     26 C          60.5605   88.7343    9.4816 C.ar    1  UNL1        0.1178
     27 C          61.0922   88.7682   10.8838 C.2     1  UNL1        0.2518
     28 N          62.5490   89.0298   11.1274 N.am    1  UNL1       -0.3248
     29 O          60.1671   88.5406   12.0425 O.2     1  UNL1       -0.2697
     30 H          63.1562   89.1792   10.3670 H       1  UNL1        0.1453
     31 H          62.8980   89.0521   12.0477 H       1  UNL1        0.1453
     32 O          60.6167   86.0927    9.0769 O.3     1  UNL1       -0.4740
     33 C          62.9796   85.7033    8.0693 C.3     1  UNL1        0.0523
     34 C          62.0311   85.6167    9.2281 C.3     1  UNL1        0.1891
     35 C          62.4971   85.0542   10.5383 C.ar    1  UNL1        0.0278
     36 C          61.9758   85.6208   11.8256 C.ar    1  UNL1        0.0000
     37 C          62.4418   85.0583   13.1358 C.ar    1  UNL1       -0.0002
     38 C          63.4290   83.9292   13.1585 C.ar    1  UNL1        0.0008
     39 C          63.9502   83.3626   11.8713 C.ar    1  UNL1        0.0112
     40 C          63.4843   83.9251   10.5610 C.ar    1  UNL1        0.0570
     41 CL         64.0055   83.3585    9.2738 Cl      1  UNL1       -0.0825
@<TRIPOS>BOND
     1    34    33    1
     2    34    32    1
     3    32    22    1
     4    22    23   ar
     5    23    24   ar
     6    24     1    1
     7     1     2   ar
     8     2     3   ar
     9     3     4   ar
    10     4     5   ar
    11     5     6   ar
    12     6    10    1
    13    10    11   ar
    14    11    12   ar
    15    12    13   ar
    16    13    14   ar
    17    14    16    1
    18    16    18    1
    19    18    19    1
    20    19    20    1
    21    14    15   ar
    22     6     7   ar
    23     7     8   ar
    24     8     9   ar
    25    24    25   ar
    26    25    26   ar
    27    26    27    1
    28    27    28   am
    29    27    29    2
    30    34    35    1
    31    35    36   ar
    32    36    37   ar
    33    37    38   ar
    34    38    39   ar
    35    39    40   ar
    36    40    41    1
    37    26    22   ar
    38    40    35   ar
    39     9     1   ar
    40     9     4   ar
    41    15    10   ar
    42    16    17    1
    43    20    21    1
    44    28    30    1
    45    28    31    1
@<TRIPOS>MOLECULE
*****
 41 45 0 0 0
SMALL
GASTEIGER

@<TRIPOS>ATOM
      1 N          62.0097   87.3257   10.6243 N.ar    1  UNL1       -0.2823
      2 C          62.4608   88.5079   11.4298 C.ar    1  UNL1        0.1831
      3 N          61.9557   89.7486   10.7548 N.ar    1  UNL1       -0.2236
      4 C          61.1924   89.3332    9.5322 C.ar    1  UNL1        0.0991
      5 C          60.4713   90.1249    8.4819 C.ar    1  UNL1        0.0206
      6 C          59.7836   89.4193    7.3510 C.ar    1  UNL1        0.0017
      7 C          59.8170   87.9218    7.2704 C.ar    1  UNL1        0.0016
      8 C          60.5381   87.1300    8.3206 C.ar    1  UNL1        0.0191
      9 C          61.2258   87.8357    9.4515 C.ar    1  UNL1        0.0835
     10 C          59.0625   90.2110    6.3007 C.ar    1  UNL1        0.0044
     11 C          57.5717   90.1050    6.1732 C.ar    1  UNL1        0.0208
     12 C          56.8506   90.8967    5.1229 C.ar    1  UNL1        0.1003
     13 N          57.6202   91.7945    4.2001 N.ar    1  UNL1       -0.2294
     14 C          59.1110   91.9006    4.3275 C.ar    1  UNL1        0.1286
     15 C          59.8322   91.1088    5.3779 C.ar    1  UNL1        0.0341
     16 N          59.8807   92.7983    3.4048 N.pl3   1  UNL1       -0.3160
     17 H          60.6874   93.2612    3.7277 H       1  UNL1        0.1483
     18 C          59.4214   92.9909    1.9899 C.3     1  UNL1        0.1203
     19 C          60.2284   92.4305    0.8564 C.3     1  UNL1        0.1583
     20 O          59.5561   91.6295   -0.2189 O.3     1  UNL1       -0.3802
     21 H          59.2126   90.8048    0.1591 H       1  UNL1        0.2105
     22 C          62.3762   83.7445   12.0756 C.ar    1  UNL1        0.1512
     23 C          61.8894   85.1590   12.1851 C.ar    1  UNL1        0.0619
     24 C          62.2928   85.8862   10.9367 C.ar    1  UNL1        0.0987
     25 S          63.0290   84.9211   10.0556 S.2     1  UNL1       -0.0618
     26 C          63.0806   83.5974   10.7594 C.ar    1  UNL1        0.1178
     27 C          63.7237   82.3463   10.2384 C.2     1  UNL1        0.2518
     28 N          63.0749   81.0148   10.4756 N.am    1  UNL1       -0.3248
     29 O          65.0155   82.4267    9.4803 O.2     1  UNL1       -0.2697
     30 H          62.2270   80.9620   10.9732 H       1  UNL1        0.1453
     31 H          63.4970   80.1937   10.1337 H       1  UNL1        0.1453
     32 O          62.1913   82.6664   13.1019 O.3     1  UNL1       -0.4740
     33 C          63.6414   81.4305   14.8681 C.3     1  UNL1        0.0523
     34 C          62.9970   82.6889   14.3669 C.3     1  UNL1        0.1891
     35 C          63.1584   83.9697   15.1306 C.ar    1  UNL1        0.0278
     36 C          62.1270   84.3753   16.1414 C.ar    1  UNL1        0.0000
     37 C          62.2884   85.6562   16.9051 C.ar    1  UNL1       -0.0002
     38 C          63.4812   86.5315   16.6580 C.ar    1  UNL1        0.0008
     39 C          64.5126   86.1260   15.6473 C.ar    1  UNL1        0.0112
     40 C          64.3512   84.8450   14.8835 C.ar    1  UNL1        0.0570
     41 CL         65.3826   84.4395   13.8728 Cl      1  UNL1       -0.0825
@<TRIPOS>BOND
     1    34    33    1
     2    34    32    1
     3    32    22    1
     4    22    23   ar
     5    23    24   ar
     6    24     1    1
     7     1     2   ar
     8     2     3   ar
     9     3     4   ar
    10     4     5   ar
    11     5     6   ar
    12     6    10    1
    13    10    11   ar
    14    11    12   ar
    15    12    13   ar
    16    13    14   ar
    17    14    16    1
    18    16    18    1
    19    18    19    1
    20    19    20    1
    21    14    15   ar
    22     6     7   ar
    23     7     8   ar
    24     8     9   ar
    25    24    25   ar
    26    25    26   ar
    27    26    27    1
    28    27    28   am
    29    27    29    2
    30    34    35    1
    31    35    36   ar
    32    36    37   ar
    33    37    38   ar
    34    38    39   ar
    35    39    40   ar
    36    40    41    1
    37    26    22   ar
    38    40    35   ar
    39     9     1   ar
    40     9     4   ar
    41    15    10   ar
    42    16    17    1
    43    20    21    1
    44    28    30    1
    45    28    31    1
