@<TRIPOS>MOLECULE
*****
 34 37 0 0 0
SMALL
GASTEIGER

@<TRIPOS>ATOM
      1 C          64.5354   91.5589   15.4017 C.3     1  UNL1        0.1166
      2 C          64.1753   90.1132   15.5750 C.ar    1  UNL1       -0.0026
      3 C          63.3786   89.6766   16.7686 C.ar    1  UNL1       -0.0025
      4 C          63.0185   88.2308   16.9420 C.ar    1  UNL1        0.0042
      5 C          63.4550   87.2216   15.9216 C.ar    1  UNL1        0.0533
      6 C          64.2516   87.6582   14.7280 C.ar    1  UNL1        0.0042
      7 C          64.6117   89.1040   14.5547 C.ar    1  UNL1       -0.0025
      8 C          63.0948   85.7759   16.0949 C.2     1  UNL1        0.2461
      9 O          62.2728   85.3437   17.2728 O.2     1  UNL1       -0.2701
     10 N          63.5567   84.7622   15.0903 N.am    1  UNL1       -0.2969
     11 H          64.0963   85.0458   14.3172 H       1  UNL1        0.1501
     12 C          63.1966   83.3165   15.2636 C.3     1  UNL1        0.1166
     13 C          63.0789   82.4238   14.0639 C.ar    1  UNL1       -0.0026
     14 C          62.4138   81.0851   14.1875 C.ar    1  UNL1       -0.0026
     15 C          62.2961   80.1924   12.9878 C.ar    1  UNL1       -0.0003
     16 C          62.8436   80.6385   11.6645 C.ar    1  UNL1       -0.0000
     17 C          63.5087   81.9773   11.5408 C.ar    1  UNL1       -0.0003
     18 C          63.6264   82.8700   12.7405 C.ar    1  UNL1       -0.0026
     19 C          66.3560   92.1884   13.6583 C.2     1  UNL1        0.2461
     20 O          67.4252   91.7737   14.6251 O.2     1  UNL1       -0.2701
     21 N          64.9111   92.0810   14.0466 N.am    1  UNL1       -0.2969
     22 H          64.2093   92.3533   13.4120 H       1  UNL1        0.1501
     23 N          66.7971   96.8559    7.3620 N.pl3   1  UNL1       -0.3375
     24 C          66.8882   95.7917    8.4152 C.ar    1  UNL1        0.1567
     25 N          67.6774   94.5198    8.3176 N.ar    1  UNL1       -0.2245
     26 C          67.4831   93.7547    9.5931 C.ar    1  UNL1        0.0892
     27 C          68.0166   92.4336   10.0622 C.ar    1  UNL1        0.0198
     28 C          67.6409   91.9116   11.4173 C.ar    1  UNL1        0.0061
     29 C          66.7317   92.7105   12.3032 C.ar    1  UNL1        0.0540
     30 C          66.1981   94.0316   11.8340 C.ar    1  UNL1        0.0126
     31 C          66.5738   94.5536   10.4790 C.ar    1  UNL1        0.0498
     32 S          66.2062   95.8126    9.7510 S.2     1  UNL1       -0.0520
     33 H          67.2840   96.7509    6.5128 H       1  UNL1        0.1442
     34 H          66.2503   97.6592    7.5199 H       1  UNL1        0.1442
@<TRIPOS>BOND
     1    23    24    1
     2    24    25   ar
     3    25    26   ar
     4    26    27   ar
     5    27    28   ar
     6    28    29   ar
     7    29    19    1
     8    19    20    2
     9    19    21   am
    10    21     1    1
    11     1     2    1
    12     2     3   ar
    13     3     4   ar
    14     4     5   ar
    15     5     8    1
    16     8     9    2
    17     8    10   am
    18    10    12    1
    19    12    13    1
    20    13    14   ar
    21    14    15   ar
    22    15    16   ar
    23    16    17   ar
    24    17    18   ar
    25     5     6   ar
    26     6     7   ar
    27    29    30   ar
    28    30    31   ar
    29    31    32   ar
    30    32    24   ar
    31    31    26   ar
    32     7     2   ar
    33    18    13   ar
    34    23    33    1
    35    23    34    1
    36    21    22    1
    37    10    11    1
@<TRIPOS>MOLECULE
*****
 34 37 0 0 0
SMALL
GASTEIGER

@<TRIPOS>ATOM
      1 C          59.2456   89.4170    7.0470 C.3     1  UNL1        0.1166
      2 C          60.0027   88.6894    8.1182 C.ar    1  UNL1       -0.0026
      3 C          60.6941   89.4604    9.2034 C.ar    1  UNL1       -0.0025
      4 C          61.4511   88.7328   10.2746 C.ar    1  UNL1        0.0042
      5 C          61.5169   87.2343   10.2606 C.ar    1  UNL1        0.0533
      6 C          60.8255   86.4634    9.1753 C.ar    1  UNL1        0.0042
      7 C          60.0684   87.1910    8.1041 C.ar    1  UNL1       -0.0025
      8 C          62.2740   86.5068   11.3318 C.2     1  UNL1        0.2461
      9 O          62.9611   87.2775   12.4198 O.2     1  UNL1       -0.2701
     10 N          62.3439   85.0085   11.3149 N.am    1  UNL1       -0.2969
     11 H          61.8930   84.5026   10.6008 H       1  UNL1        0.1501
     12 C          63.1010   84.2809   12.3861 C.3     1  UNL1        0.1166
     13 C          62.7582   82.8574   12.7118 C.ar    1  UNL1       -0.0026
     14 C          63.1386   81.7587   11.7641 C.ar    1  UNL1       -0.0026
     15 C          62.7958   80.3352   12.0898 C.ar    1  UNL1       -0.0003
     16 C          62.0726   80.0104   13.3631 C.ar    1  UNL1       -0.0000
     17 C          61.6923   81.1091   14.3109 C.ar    1  UNL1       -0.0003
     18 C          62.0351   82.5326   13.9852 C.ar    1  UNL1       -0.0026
     19 C          59.2914   91.1559    5.1171 C.2     1  UNL1        0.2461
     20 O          57.8521   91.4861    5.3806 O.2     1  UNL1       -0.2701
     21 N          59.9882   90.1214    5.9503 N.am    1  UNL1       -0.2969
     22 H          60.9328   89.9046    5.7774 H       1  UNL1        0.1501
     23 N          65.1225   93.4728    0.3998 N.pl3   1  UNL1       -0.3375
     24 C          63.8461   93.2060    1.1411 C.ar    1  UNL1        0.1567
     25 N          62.5085   93.8152    0.8412 N.ar    1  UNL1       -0.2245
     26 C          61.5189   93.2690    1.8273 C.ar    1  UNL1        0.0892
     27 C          60.0505   93.5113    2.0146 C.ar    1  UNL1        0.0198
     28 C          59.3081   92.8070    3.1112 C.ar    1  UNL1        0.0061
     29 C          60.0340   91.8603    4.0205 C.ar    1  UNL1        0.0540
     30 C          61.5023   91.6179    3.8331 C.ar    1  UNL1        0.0126
     31 C          62.2448   92.3222    2.7365 C.ar    1  UNL1        0.0498
     32 S          63.6830   92.2834    2.3124 S.2     1  UNL1       -0.0520
     33 H          65.1288   94.0984   -0.3603 H       1  UNL1        0.1442
     34 H          65.9540   93.0222    0.6733 H       1  UNL1        0.1442
@<TRIPOS>BOND
     1    23    24    1
     2    24    25   ar
     3    25    26   ar
     4    26    27   ar
     5    27    28   ar
     6    28    29   ar
     7    29    19    1
     8    19    20    2
     9    19    21   am
    10    21     1    1
    11     1     2    1
    12     2     3   ar
    13     3     4   ar
    14     4     5   ar
    15     5     8    1
    16     8     9    2
    17     8    10   am
    18    10    12    1
    19    12    13    1
    20    13    14   ar
    21    14    15   ar
    22    15    16   ar
    23    16    17   ar
    24    17    18   ar
    25     5     6   ar
    26     6     7   ar
    27    29    30   ar
    28    30    31   ar
    29    31    32   ar
    30    32    24   ar
    31    31    26   ar
    32     7     2   ar
    33    18    13   ar
    34    23    33    1
    35    23    34    1
    36    21    22    1
    37    10    11    1
@<TRIPOS>MOLECULE
*****
 34 37 0 0 0
SMALL
GASTEIGER

@<TRIPOS>ATOM
      1 C          64.1478   89.1987   14.9872 C.3     1  UNL1        0.1166
      2 C          64.7221   90.3488   14.2143 C.ar    1  UNL1       -0.0026
      3 C          64.0179   90.8566   12.9911 C.ar    1  UNL1       -0.0025
      4 C          64.5922   92.0067   12.2182 C.ar    1  UNL1        0.0042
      5 C          65.8708   92.6490   12.6684 C.ar    1  UNL1        0.0533
      6 C          66.5751   92.1411   13.8915 C.ar    1  UNL1        0.0042
      7 C          66.0007   90.9910   14.6645 C.ar    1  UNL1       -0.0025
      8 C          66.4451   93.7990   11.8954 C.2     1  UNL1        0.2461
      9 O          67.4883   93.5512   10.8465 O.2     1  UNL1       -0.2701
     10 N          65.9763   95.1969   12.1715 N.am    1  UNL1       -0.2969
     11 H          65.2916   95.3595   12.8600 H       1  UNL1        0.1501
     12 C          66.5506   96.3469   11.3985 C.3     1  UNL1        0.1166
     13 C          66.2647   96.4825    9.9323 C.ar    1  UNL1       -0.0026
     14 C          64.8607   96.7199    9.4607 C.ar    1  UNL1       -0.0026
     15 C          64.5748   96.8554    7.9945 C.ar    1  UNL1       -0.0003
     16 C          65.6929   96.7536    6.9998 C.ar    1  UNL1       -0.0000
     17 C          67.0970   96.5162    7.4713 C.ar    1  UNL1       -0.0003
     18 C          67.3829   96.3806    8.9376 C.ar    1  UNL1       -0.0026
     19 C          63.6751   86.6536   15.2093 C.2     1  UNL1        0.2461
     20 O          63.1772   86.8682   16.6079 O.2     1  UNL1       -0.2701
     21 N          64.1604   87.8189   14.3989 N.am    1  UNL1       -0.2969
     22 H          64.4871   87.6780   13.4810 H       1  UNL1        0.1501
     23 N          63.1979   80.8000   10.0006 N.pl3   1  UNL1       -0.3375
     24 C          63.3455   81.7087   11.1849 C.ar    1  UNL1        0.1567
     25 N          63.6592   81.2836   12.5888 N.ar    1  UNL1       -0.2245
     26 C          63.7128   82.5142   13.4448 C.ar    1  UNL1        0.0892
     27 C          63.9809   82.7083   14.9078 C.ar    1  UNL1        0.0198
     28 C          63.9683   84.0881   15.4959 C.ar    1  UNL1        0.0061
     29 C          63.6877   85.2738   14.6211 C.ar    1  UNL1        0.0540
     30 C          63.4196   85.0797   13.1581 C.ar    1  UNL1        0.0126
     31 C          63.4322   83.6999   12.5699 C.ar    1  UNL1        0.0498
     32 S          63.2051   83.2021   11.1733 S.2     1  UNL1       -0.0520
     33 H          63.3090   79.8278   10.1093 H       1  UNL1        0.1442
     34 H          62.9900   81.1758    9.1147 H       1  UNL1        0.1442
@<TRIPOS>BOND
     1    23    24    1
     2    24    25   ar
     3    25    26   ar
     4    26    27   ar
     5    27    28   ar
     6    28    29   ar
     7    29    19    1
     8    19    20    2
     9    19    21   am
    10    21     1    1
    11     1     2    1
    12     2     3   ar
    13     3     4   ar
    14     4     5   ar
    15     5     8    1
    16     8     9    2
    17     8    10   am
    18    10    12    1
    19    12    13    1
    20    13    14   ar
    21    14    15   ar
    22    15    16   ar
    23    16    17   ar
    24    17    18   ar
    25     5     6   ar
    26     6     7   ar
    27    29    30   ar
    28    30    31   ar
    29    31    32   ar
    30    32    24   ar
    31    31    26   ar
    32     7     2   ar
    33    18    13   ar
    34    23    33    1
    35    23    34    1
    36    21    22    1
    37    10    11    1
@<TRIPOS>MOLECULE
*****
 34 37 0 0 0
SMALL
GASTEIGER

@<TRIPOS>ATOM
      1 C          59.2044   89.3300    7.1223 C.3     1  UNL1        0.1166
      2 C          59.9631   88.5406    8.1476 C.ar    1  UNL1       -0.0026
      3 C          59.9122   87.0416    8.1283 C.ar    1  UNL1       -0.0025
      4 C          60.6709   86.2522    9.1536 C.ar    1  UNL1        0.0042
      5 C          61.4805   86.9618   10.1982 C.ar    1  UNL1        0.0533
      6 C          61.5314   88.4608   10.2174 C.ar    1  UNL1        0.0042
      7 C          60.7727   89.2502    9.1920 C.ar    1  UNL1       -0.0025
      8 C          62.2392   86.1724   11.2234 C.2     1  UNL1        0.2461
      9 O          62.9191   86.8768   12.3598 O.2     1  UNL1       -0.2701
     10 N          62.3180   84.6786   11.1122 N.am    1  UNL1       -0.2969
     11 H          61.8718   84.2163   10.3663 H       1  UNL1        0.1501
     12 C          63.0767   83.8892   12.1375 C.3     1  UNL1        0.1166
     13 C          63.2318   84.4228   13.5308 C.ar    1  UNL1       -0.0026
     14 C          64.4826   85.1541   13.9189 C.ar    1  UNL1       -0.0026
     15 C          64.6378   85.6876   15.3122 C.ar    1  UNL1       -0.0003
     16 C          63.5421   85.4899   16.3174 C.ar    1  UNL1       -0.0000
     17 C          62.2912   84.7586   15.9293 C.ar    1  UNL1       -0.0003
     18 C          62.1361   84.2250   14.5360 C.ar    1  UNL1       -0.0026
     19 C          59.2433   91.0751    5.1979 C.2     1  UNL1        0.2461
     20 O          57.8082   91.4124    5.4748 O.2     1  UNL1       -0.2701
     21 N          59.9414   90.0339    6.0216 N.am    1  UNL1       -0.2969
     22 H          60.8833   89.8125    5.8398 H       1  UNL1        0.1501
     23 N          65.0575   93.4166    0.4719 N.pl3   1  UNL1       -0.3375
     24 C          63.7828   93.1424    1.2134 C.ar    1  UNL1        0.1567
     25 N          62.4396   93.7358    0.9073 N.ar    1  UNL1       -0.2245
     26 C          61.4540   93.1868    1.8959 C.ar    1  UNL1        0.0892
     27 C          59.9831   93.4157    2.0795 C.ar    1  UNL1        0.0198
     28 C          59.2462   92.7118    3.1802 C.ar    1  UNL1        0.0061
     29 C          59.9803   91.7790    4.0972 C.ar    1  UNL1        0.0540
     30 C          61.4512   91.5501    3.9136 C.ar    1  UNL1        0.0126
     31 C          62.1881   92.2540    2.8129 C.ar    1  UNL1        0.0498
     32 S          63.6273   92.2265    2.3911 S.2     1  UNL1       -0.0520
     33 H          65.0586   94.0368   -0.2927 H       1  UNL1        0.1442
     34 H          65.8931   92.9763    0.7498 H       1  UNL1        0.1442
@<TRIPOS>BOND
     1    23    24    1
     2    24    25   ar
     3    25    26   ar
     4    26    27   ar
     5    27    28   ar
     6    28    29   ar
     7    29    19    1
     8    19    20    2
     9    19    21   am
    10    21     1    1
    11     1     2    1
    12     2     3   ar
    13     3     4   ar
    14     4     5   ar
    15     5     8    1
    16     8     9    2
    17     8    10   am
    18    10    12    1
    19    12    13    1
    20    13    14   ar
    21    14    15   ar
    22    15    16   ar
    23    16    17   ar
    24    17    18   ar
    25     5     6   ar
    26     6     7   ar
    27    29    30   ar
    28    30    31   ar
    29    31    32   ar
    30    32    24   ar
    31    31    26   ar
    32     7     2   ar
    33    18    13   ar
    34    23    33    1
    35    23    34    1
    36    21    22    1
    37    10    11    1
@<TRIPOS>MOLECULE
*****
 34 37 0 0 0
SMALL
GASTEIGER

@<TRIPOS>ATOM
      1 C          62.9677   87.3403   16.8996 C.3     1  UNL1        0.1166
      2 C          63.5272   88.5453   16.2033 C.ar    1  UNL1       -0.0026
      3 C          63.3893   89.9028   16.8261 C.ar    1  UNL1       -0.0025
      4 C          63.9489   91.1078   16.1298 C.ar    1  UNL1        0.0042
      5 C          64.6463   90.9553   14.8106 C.ar    1  UNL1        0.0533
      6 C          64.7842   89.5977   14.1877 C.ar    1  UNL1        0.0042
      7 C          64.2246   88.3927   14.8841 C.ar    1  UNL1       -0.0025
      8 C          65.2059   92.1602   14.1143 C.2     1  UNL1        0.2461
      9 O          65.9393   93.2069   14.8994 O.2     1  UNL1       -0.2701
     10 N          65.0319   92.3185   12.6328 N.am    1  UNL1       -0.2969
     11 H          64.5505   91.6316   12.1175 H       1  UNL1        0.1501
     12 C          65.5915   93.5235   11.9365 C.3     1  UNL1        0.1166
     13 C          66.5744   93.3534   10.8163 C.ar    1  UNL1       -0.0026
     14 C          66.7300   94.4313    9.7848 C.ar    1  UNL1       -0.0026
     15 C          67.7129   94.2611    8.6646 C.ar    1  UNL1       -0.0003
     16 C          68.5403   93.0131    8.5758 C.ar    1  UNL1       -0.0000
     17 C          68.3847   91.9351    9.6073 C.ar    1  UNL1       -0.0003
     18 C          67.4018   92.1053   10.7275 C.ar    1  UNL1       -0.0026
     19 C          63.6564   85.2668   15.4938 C.2     1  UNL1        0.2461
     20 O          65.1018   85.6252   15.6732 O.2     1  UNL1       -0.2701
     21 N          62.5893   86.1243   16.1069 N.am    1  UNL1       -0.2969
     22 H          61.6406   85.8890   15.9891 H       1  UNL1        0.1501
     23 N          63.2066   80.0788    9.6196 N.pl3   1  UNL1       -0.3375
     24 C          63.1165   80.8882   10.8793 C.ar    1  UNL1        0.1567
     25 N          62.3250   80.5307   12.1023 N.ar    1  UNL1       -0.2245
     26 C          62.5213   81.6188   13.1160 C.ar    1  UNL1        0.0892
     27 C          61.9869   81.8048   14.5051 C.ar    1  UNL1        0.0198
     28 C          62.3652   83.0208   15.2976 C.ar    1  UNL1        0.0061
     29 C          63.2780   84.0508   14.7011 C.ar    1  UNL1        0.0540
     30 C          63.8125   83.8648   13.3120 C.ar    1  UNL1        0.0126
     31 C          63.4342   82.6488   12.5194 C.ar    1  UNL1        0.0498
     32 S          63.8020   82.1973   11.1371 S.2     1  UNL1       -0.0520
     33 H          62.7173   79.2277    9.5453 H       1  UNL1        0.1442
     34 H          63.7550   80.3986    8.8672 H       1  UNL1        0.1442
@<TRIPOS>BOND
     1    23    24    1
     2    24    25   ar
     3    25    26   ar
     4    26    27   ar
     5    27    28   ar
     6    28    29   ar
     7    29    19    1
     8    19    20    2
     9    19    21   am
    10    21     1    1
    11     1     2    1
    12     2     3   ar
    13     3     4   ar
    14     4     5   ar
    15     5     8    1
    16     8     9    2
    17     8    10   am
    18    10    12    1
    19    12    13    1
    20    13    14   ar
    21    14    15   ar
    22    15    16   ar
    23    16    17   ar
    24    17    18   ar
    25     5     6   ar
    26     6     7   ar
    27    29    30   ar
    28    30    31   ar
    29    31    32   ar
    30    32    24   ar
    31    31    26   ar
    32     7     2   ar
    33    18    13   ar
    34    23    33    1
    35    23    34    1
    36    21    22    1
    37    10    11    1
@<TRIPOS>MOLECULE
*****
 34 37 0 0 0
SMALL
GASTEIGER

@<TRIPOS>ATOM
      1 C          58.9410   89.1722    7.4036 C.3     1  UNL1        0.1166
      2 C          59.0969   90.1194    6.2510 C.ar    1  UNL1       -0.0026
      3 C          57.8923   90.7990    5.6704 C.ar    1  UNL1       -0.0025
      4 C          58.0482   91.7461    4.5178 C.ar    1  UNL1        0.0042
      5 C          59.4088   92.0137    3.9457 C.ar    1  UNL1        0.0533
      6 C          60.6134   91.3340    4.5262 C.ar    1  UNL1        0.0042
      7 C          60.4575   90.3869    5.6789 C.ar    1  UNL1       -0.0025
      8 C          59.5648   92.9608    2.7931 C.2     1  UNL1        0.2461
      9 O          60.0495   94.3600    3.0324 O.2     1  UNL1       -0.2701
     10 N          59.2359   92.5088    1.4011 N.am    1  UNL1       -0.2969
     11 H          58.9177   91.5905    1.2440 H       1  UNL1        0.1501
     12 C          59.3918   93.4560    0.2485 C.3     1  UNL1        0.1166
     13 C          58.1851   93.9086   -0.5188 C.ar    1  UNL1       -0.0026
     14 C          57.2108   92.8986   -1.0486 C.ar    1  UNL1       -0.0026
     15 C          56.0040   93.3513   -1.8159 C.ar    1  UNL1       -0.0003
     16 C          55.7715   94.8140   -2.0535 C.ar    1  UNL1       -0.0000
     17 C          56.7458   95.8241   -1.5237 C.ar    1  UNL1       -0.0003
     18 C          57.9526   95.3714   -0.7564 C.ar    1  UNL1       -0.0026
     19 C          60.3015   87.6476    9.0081 C.2     1  UNL1        0.2461
     20 O          59.6546   88.3115   10.1874 O.2     1  UNL1       -0.2701
     21 N          59.9447   88.0779    7.6162 N.am    1  UNL1       -0.2969
     22 H          60.3693   87.6422    6.8422 H       1  UNL1        0.1501
     23 N          64.8473   82.3350   12.5768 N.pl3   1  UNL1       -0.3375
     24 C          64.1018   83.2525   11.6536 C.ar    1  UNL1        0.1567
     25 N          64.2429   83.3070   10.1613 N.ar    1  UNL1       -0.2245
     26 C          63.3126   84.3648    9.6459 C.ar    1  UNL1        0.0892
     27 C          63.0251   84.8598    8.2595 C.ar    1  UNL1        0.0198
     28 C          62.0214   85.9540    8.0469 C.ar    1  UNL1        0.0061
     29 C          61.3053   86.5533    9.2208 C.ar    1  UNL1        0.0540
     30 C          61.5928   86.0584   10.6072 C.ar    1  UNL1        0.0126
     31 C          62.5965   84.9641   10.8198 C.ar    1  UNL1        0.0498
     32 S          63.0842   84.2767   12.0606 S.2     1  UNL1       -0.0520
     33 H          65.4990   81.6933   12.2126 H       1  UNL1        0.1442
     34 H          64.6849   82.3745   13.5470 H       1  UNL1        0.1442
@<TRIPOS>BOND
     1    23    24    1
     2    24    25   ar
     3    25    26   ar
     4    26    27   ar
     5    27    28   ar
     6    28    29   ar
     7    29    19    1
     8    19    20    2
     9    19    21   am
    10    21     1    1
    11     1     2    1
    12     2     3   ar
    13     3     4   ar
    14     4     5   ar
    15     5     8    1
    16     8     9    2
    17     8    10   am
    18    10    12    1
    19    12    13    1
    20    13    14   ar
    21    14    15   ar
    22    15    16   ar
    23    16    17   ar
    24    17    18   ar
    25     5     6   ar
    26     6     7   ar
    27    29    30   ar
    28    30    31   ar
    29    31    32   ar
    30    32    24   ar
    31    31    26   ar
    32     7     2   ar
    33    18    13   ar
    34    23    33    1
    35    23    34    1
    36    21    22    1
    37    10    11    1
@<TRIPOS>MOLECULE
*****
 34 37 0 0 0
SMALL
GASTEIGER

@<TRIPOS>ATOM
      1 C          63.7526   89.4452   16.1269 C.3     1  UNL1        0.1166
      2 C          63.6722   87.9672   15.8845 C.ar    1  UNL1       -0.0026
      3 C          64.3182   87.3702   14.6695 C.ar    1  UNL1       -0.0025
      4 C          64.2378   85.8921   14.4271 C.ar    1  UNL1        0.0042
      5 C          63.5114   85.0109   15.3997 C.ar    1  UNL1        0.0533
      6 C          62.8654   85.6079   16.6147 C.ar    1  UNL1        0.0042
      7 C          62.9458   87.0861   16.8571 C.ar    1  UNL1       -0.0025
      8 C          63.4310   83.5329   15.1573 C.2     1  UNL1        0.2461
      9 O          64.5413   82.6358   15.6182 O.2     1  UNL1       -0.2701
     10 N          62.2403   82.9519   14.4539 N.am    1  UNL1       -0.2969
     11 H          61.5116   83.5407   14.1514 H       1  UNL1        0.1501
     12 C          62.1599   81.4738   14.2115 C.3     1  UNL1        0.1166
     13 C          62.4636   80.9193   12.8513 C.ar    1  UNL1       -0.0026
     14 C          62.3976   79.4399   12.6126 C.ar    1  UNL1       -0.0026
     15 C          62.7013   78.8853   11.2524 C.ar    1  UNL1       -0.0003
     16 C          63.0710   79.8101   10.1308 C.ar    1  UNL1       -0.0000
     17 C          63.1370   81.2896   10.3694 C.ar    1  UNL1       -0.0003
     18 C          62.8333   81.8442   11.7297 C.ar    1  UNL1       -0.0026
     19 C          63.5761   90.4329   13.7304 C.2     1  UNL1        0.2461
     20 O          62.3519   89.6035   13.4787 O.2     1  UNL1       -0.2701
     21 N          64.2764   90.3538   15.0544 N.am    1  UNL1       -0.2969
     22 H          65.0800   90.8982   15.2196 H       1  UNL1        0.1501
     23 N          67.5945   96.1500   10.1540 N.pl3   1  UNL1       -0.3375
     24 C          66.7220   95.0046   10.5744 C.ar    1  UNL1        0.1567
     25 N          65.8341   94.1962    9.6754 N.ar    1  UNL1       -0.2245
     26 C          65.1476   93.1584   10.5130 C.ar    1  UNL1        0.0892
     27 C          64.1602   92.0830   10.1687 C.ar    1  UNL1        0.0198
     28 C          63.6364   91.1745   11.2411 C.ar    1  UNL1        0.0061
     29 C          64.1000   91.3415   12.6579 C.ar    1  UNL1        0.0540
     30 C          65.0873   92.4169   13.0022 C.ar    1  UNL1        0.0126
     31 C          65.6111   93.3254   11.9298 C.ar    1  UNL1        0.0498
     32 S          66.5841   94.4663   11.9677 S.2     1  UNL1       -0.0520
     33 H          67.6173   96.4310    9.2107 H       1  UNL1        0.1442
     34 H          68.1443   96.6208   10.8214 H       1  UNL1        0.1442
@<TRIPOS>BOND
     1    23    24    1
     2    24    25   ar
     3    25    26   ar
     4    26    27   ar
     5    27    28   ar
     6    28    29   ar
     7    29    19    1
     8    19    20    2
     9    19    21   am
    10    21     1    1
    11     1     2    1
    12     2     3   ar
    13     3     4   ar
    14     4     5   ar
    15     5     8    1
    16     8     9    2
    17     8    10   am
    18    10    12    1
    19    12    13    1
    20    13    14   ar
    21    14    15   ar
    22    15    16   ar
    23    16    17   ar
    24    17    18   ar
    25     5     6   ar
    26     6     7   ar
    27    29    30   ar
    28    30    31   ar
    29    31    32   ar
    30    32    24   ar
    31    31    26   ar
    32     7     2   ar
    33    18    13   ar
    34    23    33    1
    35    23    34    1
    36    21    22    1
    37    10    11    1
@<TRIPOS>MOLECULE
*****
 34 37 0 0 0
SMALL
GASTEIGER

@<TRIPOS>ATOM
      1 C          58.9029   89.2738    6.9663 C.3     1  UNL1        0.1166
      2 C          59.1281   90.2670    5.8651 C.ar    1  UNL1       -0.0026
      3 C          60.5189   90.5393    5.3735 C.ar    1  UNL1       -0.0025
      4 C          60.7441   91.5325    4.2722 C.ar    1  UNL1        0.0042
      5 C          59.5785   92.2534    3.6625 C.ar    1  UNL1        0.0533
      6 C          58.1877   91.9812    4.1541 C.ar    1  UNL1        0.0042
      7 C          57.9626   90.9879    5.2555 C.ar    1  UNL1       -0.0025
      8 C          59.8037   93.2466    2.5613 C.2     1  UNL1        0.2461
      9 O          60.1785   94.6609    2.8919 O.2     1  UNL1       -0.2701
     10 N          59.6541   92.8256    1.1294 N.am    1  UNL1       -0.2969
     11 H          59.4081   91.8973    0.9124 H       1  UNL1        0.1501
     12 C          59.8793   93.8188    0.0281 C.3     1  UNL1        0.1166
     13 C          61.1378   93.7634   -0.7861 C.ar    1  UNL1       -0.0026
     14 C          62.4721   93.9002   -0.1146 C.ar    1  UNL1       -0.0026
     15 C          63.7307   93.8448   -0.9287 C.ar    1  UNL1       -0.0003
     16 C          63.6550   93.6525   -2.4144 C.ar    1  UNL1       -0.0000
     17 C          62.3207   93.5157   -3.0860 C.ar    1  UNL1       -0.0003
     18 C          61.0621   93.5711   -2.2718 C.ar    1  UNL1       -0.0026
     19 C          60.2787   87.9396    8.7205 C.2     1  UNL1        0.2461
     20 O          59.8223   86.6526    8.0997 O.2     1  UNL1       -0.2701
     21 N          59.8190   89.2501    8.1539 N.am    1  UNL1       -0.2969
     22 H          60.1186   90.0948    8.5614 H       1  UNL1        0.1501
     23 N          64.8171   90.3755   14.6444 N.pl3   1  UNL1       -0.3375
     24 C          64.0223   89.6462   13.6021 C.ar    1  UNL1        0.1567
     25 N          63.9236   88.1571   13.4505 N.ar    1  UNL1       -0.2245
     26 C          63.0269   87.8685   12.2831 C.ar    1  UNL1        0.0892
     27 C          62.5664   86.5815   11.6654 C.ar    1  UNL1        0.0198
     28 C          61.6503   86.6052   10.4779 C.ar    1  UNL1        0.0061
     29 C          61.1948   87.9159    9.9081 C.ar    1  UNL1        0.0540
     30 C          61.6554   89.2028   10.5258 C.ar    1  UNL1        0.0126
     31 C          62.5714   89.1791   11.7133 C.ar    1  UNL1        0.0498
     32 S          63.1866   90.2778   12.5285 S.2     1  UNL1       -0.0520
     33 H          65.3368   89.8699   15.3103 H       1  UNL1        0.1442
     34 H          64.8190   91.3598   14.6626 H       1  UNL1        0.1442
@<TRIPOS>BOND
     1    23    24    1
     2    24    25   ar
     3    25    26   ar
     4    26    27   ar
     5    27    28   ar
     6    28    29   ar
     7    29    19    1
     8    19    20    2
     9    19    21   am
    10    21     1    1
    11     1     2    1
    12     2     3   ar
    13     3     4   ar
    14     4     5   ar
    15     5     8    1
    16     8     9    2
    17     8    10   am
    18    10    12    1
    19    12    13    1
    20    13    14   ar
    21    14    15   ar
    22    15    16   ar
    23    16    17   ar
    24    17    18   ar
    25     5     6   ar
    26     6     7   ar
    27    29    30   ar
    28    30    31   ar
    29    31    32   ar
    30    32    24   ar
    31    31    26   ar
    32     7     2   ar
    33    18    13   ar
    34    23    33    1
    35    23    34    1
    36    21    22    1
    37    10    11    1
@<TRIPOS>MOLECULE
*****
 34 37 0 0 0
SMALL
GASTEIGER

@<TRIPOS>ATOM
      1 C          58.8583   89.1296    7.0084 C.3     1  UNL1        0.1166
      2 C          59.1914   90.1454    5.9561 C.ar    1  UNL1       -0.0026
      3 C          60.6127   90.3275    5.5128 C.ar    1  UNL1       -0.0025
      4 C          60.9459   91.3433    4.4606 C.ar    1  UNL1        0.0042
      5 C          59.8576   92.1769    3.8516 C.ar    1  UNL1        0.0533
      6 C          58.4362   91.9948    4.2949 C.ar    1  UNL1        0.0042
      7 C          58.1031   90.9790    5.3472 C.ar    1  UNL1       -0.0025
      8 C          60.1907   93.1927    2.7994 C.2     1  UNL1        0.2461
      9 O          60.0036   94.6539    3.0816 O.2     1  UNL1       -0.2701
     10 N          60.7110   92.7472    1.4649 N.am    1  UNL1       -0.2969
     11 H          60.8338   91.7881    1.2796 H       1  UNL1        0.1501
     12 C          61.0441   93.7629    0.4126 C.3     1  UNL1        0.1166
     13 C          62.4491   94.2708    0.2786 C.ar    1  UNL1       -0.0026
     14 C          63.4161   94.1106    1.4140 C.ar    1  UNL1       -0.0026
     15 C          64.8211   94.6185    1.2799 C.ar    1  UNL1       -0.0003
     16 C          65.2592   95.2865    0.0104 C.ar    1  UNL1       -0.0000
     17 C          64.2922   95.4467   -1.1251 C.ar    1  UNL1       -0.0003
     18 C          62.8872   94.9389   -0.9911 C.ar    1  UNL1       -0.0026
     19 C          60.2022   87.5916    8.6141 C.2     1  UNL1        0.2461
     20 O          59.7535   86.3891    7.8378 O.2     1  UNL1       -0.2701
     21 N          59.7547   88.9618    8.1994 N.am    1  UNL1       -0.2969
     22 H          60.0492   89.7511    8.7089 H       1  UNL1        0.1501
     23 N          64.2711   84.2355   14.4282 N.pl3   1  UNL1       -0.3375
     24 C          63.6026   85.1226   13.4201 C.ar    1  UNL1        0.1567
     25 N          63.7233   86.6157   13.3421 N.ar    1  UNL1       -0.2245
     26 C          62.8914   87.0883   12.1869 C.ar    1  UNL1        0.0892
     27 C          62.6299   88.4571   11.6319 C.ar    1  UNL1        0.0198
     28 C          61.7335   88.6248   10.4410 C.ar    1  UNL1        0.0061
     29 C          61.0986   87.4238    9.8050 C.ar    1  UNL1        0.0540
     30 C          61.3601   86.0550   10.3600 C.ar    1  UNL1        0.0126
     31 C          62.2565   85.8873   11.5509 C.ar    1  UNL1        0.0498
     32 S          62.6960   84.6724   12.3131 S.2     1  UNL1       -0.0520
     33 H          64.8514   84.6270   15.1204 H       1  UNL1        0.1442
     34 H          64.1296   83.2617   14.3975 H       1  UNL1        0.1442
@<TRIPOS>BOND
     1    23    24    1
     2    24    25   ar
     3    25    26   ar
     4    26    27   ar
     5    27    28   ar
     6    28    29   ar
     7    29    19    1
     8    19    20    2
     9    19    21   am
    10    21     1    1
    11     1     2    1
    12     2     3   ar
    13     3     4   ar
    14     4     5   ar
    15     5     8    1
    16     8     9    2
    17     8    10   am
    18    10    12    1
    19    12    13    1
    20    13    14   ar
    21    14    15   ar
    22    15    16   ar
    23    16    17   ar
    24    17    18   ar
    25     5     6   ar
    26     6     7   ar
    27    29    30   ar
    28    30    31   ar
    29    31    32   ar
    30    32    24   ar
    31    31    26   ar
    32     7     2   ar
    33    18    13   ar
    34    23    33    1
    35    23    34    1
    36    21    22    1
    37    10    11    1
