@<TRIPOS>MOLECULE
*****
 18 19 0 0 0
SMALL
GASTEIGER

@<TRIPOS>ATOM
      1 C          61.3035   86.9530    9.3144 C.ar    1  UNL1       -0.0162
      2 C          60.4540   86.1877    8.3436 C.ar    1  UNL1        0.0165
      3 C          59.3850   86.8939    7.5635 C.ar    1  UNL1        0.0986
      4 N          59.1655   88.3654    7.7542 N.ar    1  UNL1       -0.2422
      5 C          60.0150   89.1307    8.7251 C.ar    1  UNL1        0.1016
      6 C          61.0840   88.4245    9.5052 C.ar    1  UNL1        0.0497
      7 C          61.9335   89.1900   10.4761 C.ar    1  UNL1        0.1461
      8 C          62.7677   90.3953   10.1581 C.ar    1  UNL1        0.0403
      9 C          63.4477   90.8347   11.4209 C.ar    1  UNL1        0.0375
     10 C          63.0337   89.9008   12.5193 C.ar    1  UNL1        0.1385
     11 O          62.0979   88.8843   11.9354 O.2     1  UNL1       -0.4563
     12 C          63.4776   89.9711   13.9504 C.3     1  UNL1        0.1307
     13 N          63.4554   91.2821   14.6790 N.3     1  UNL1       -0.3148
     14 H          64.1344   91.9164   14.2583 H       1  UNL1        0.1192
     15 H          63.6936   91.1304   15.6591 H       1  UNL1        0.1192
     16 C          62.3725   86.2469   10.0945 C.3     1  UNL1        0.0266
     17 C          62.7222   84.1262   11.5541 C.3     1  UNL1        0.0004
     18 C          62.0051   85.4166   11.2885 C.3     1  UNL1        0.0047
@<TRIPOS>BOND
     1    17    18    1
     2    18    16    1
     3    16     1    1
     4     1     2   ar
     5     2     3   ar
     6     3     4   ar
     7     4     5   ar
     8     5     6   ar
     9     6     7    1
    10     7     8   ar
    11     8     9   ar
    12     9    10   ar
    13    10    12    1
    14    12    13    1
    15    10    11   ar
    16     6     1   ar
    17    11     7   ar
    18    13    14    1
    19    13    15    1
@<TRIPOS>MOLECULE
*****
 18 19 0 0 0
SMALL
GASTEIGER

@<TRIPOS>ATOM
      1 C          63.5758   82.7073   12.4437 C.ar    1  UNL1       -0.0162
      2 C          63.1725   81.2753   12.2526 C.ar    1  UNL1        0.0165
      3 C          62.3754   80.5729   13.3115 C.ar    1  UNL1        0.0986
      4 N          61.9817   81.3025   14.5615 N.ar    1  UNL1       -0.2422
      5 C          62.3851   82.7345   14.7527 C.ar    1  UNL1        0.1016
      6 C          63.1822   83.4369   13.6938 C.ar    1  UNL1        0.0497
      7 C          63.5855   84.8690   13.8850 C.ar    1  UNL1        0.1461
      8 C          64.5132   85.3901   14.9423 C.ar    1  UNL1        0.0403
      9 C          64.6330   86.8745   14.7632 C.ar    1  UNL1        0.0375
     10 C          63.7794   87.2709   13.5952 C.ar    1  UNL1        0.1385
     11 O          63.1320   86.0314   13.0525 O.2     1  UNL1       -0.4563
     12 C          63.6040   88.6624   13.0633 C.3     1  UNL1        0.1307
     13 N          62.8946   89.6962   13.8868 N.3     1  UNL1       -0.3148
     14 H          61.9159   89.4307   13.9964 H       1  UNL1        0.1192
     15 H          62.9512   90.6009   13.4192 H       1  UNL1        0.1192
     16 C          64.3729   83.4098   11.3848 C.3     1  UNL1        0.0266
     17 C          63.1337   84.6214    9.4493 C.3     1  UNL1        0.0004
     18 C          63.8833   83.4298    9.9672 C.3     1  UNL1        0.0047
@<TRIPOS>BOND
     1    17    18    1
     2    18    16    1
     3    16     1    1
     4     1     2   ar
     5     2     3   ar
     6     3     4   ar
     7     4     5   ar
     8     5     6   ar
     9     6     7    1
    10     7     8   ar
    11     8     9   ar
    12     9    10   ar
    13    10    12    1
    14    12    13    1
    15    10    11   ar
    16     6     1   ar
    17    11     7   ar
    18    13    14    1
    19    13    15    1
@<TRIPOS>MOLECULE
*****
 18 19 0 0 0
SMALL
GASTEIGER

@<TRIPOS>ATOM
      1 C          62.2798   87.9740   11.1543 C.ar    1  UNL1       -0.0162
      2 C          61.7720   89.1761   10.4147 C.ar    1  UNL1        0.0165
      3 C          60.8003   89.0063    9.2847 C.ar    1  UNL1        0.0986
      4 N          60.3363   87.6344    8.8944 N.ar    1  UNL1       -0.2422
      5 C          60.8440   86.4322    9.6340 C.ar    1  UNL1        0.1016
      6 C          61.8158   86.6021   10.7639 C.ar    1  UNL1        0.0497
      7 C          62.3235   85.3998   11.5035 C.ar    1  UNL1        0.1461
      8 C          63.0858   84.2543   10.9064 C.ar    1  UNL1        0.0403
      9 C          63.3915   83.2786   12.0039 C.ar    1  UNL1        0.0375
     10 C          62.8182   83.8212   13.2795 C.ar    1  UNL1        0.1385
     11 O          62.1581   85.1322   12.9702 O.2     1  UNL1       -0.4563
     12 C          62.8919   83.1676   14.6275 C.3     1  UNL1        0.1307
     13 N          62.2452   81.8326   14.8501 N.3     1  UNL1       -0.3148
     14 H          61.2334   81.9258   14.7607 H       1  UNL1        0.1192
     15 H          62.4742   81.4954   15.7851 H       1  UNL1        0.1192
     16 C          63.2515   88.1438   12.2843 C.3     1  UNL1        0.0266
     17 C          64.3254   89.6488   14.1096 C.3     1  UNL1        0.0004
     18 C          63.4804   89.5017   12.8790 C.3     1  UNL1        0.0047
@<TRIPOS>BOND
     1    17    18    1
     2    18    16    1
     3    16     1    1
     4     1     2   ar
     5     2     3   ar
     6     3     4   ar
     7     4     5   ar
     8     5     6   ar
     9     6     7    1
    10     7     8   ar
    11     8     9   ar
    12     9    10   ar
    13    10    12    1
    14    12    13    1
    15    10    11   ar
    16     6     1   ar
    17    11     7   ar
    18    13    14    1
    19    13    15    1
@<TRIPOS>MOLECULE
*****
 18 19 0 0 0
SMALL
GASTEIGER

@<TRIPOS>ATOM
      1 C          63.4030   82.4936   11.9158 C.ar    1  UNL1       -0.0162
      2 C          63.0551   81.2741   11.1148 C.ar    1  UNL1        0.0165
      3 C          62.6482   80.0098   11.8119 C.ar    1  UNL1        0.0986
      4 N          62.5893   79.9650   13.3101 N.ar    1  UNL1       -0.2422
      5 C          62.9373   81.1846   14.1111 C.ar    1  UNL1        0.1016
      6 C          63.3441   82.4489   13.4139 C.ar    1  UNL1        0.0497
      7 C          63.6921   83.6684   14.2150 C.ar    1  UNL1        0.1461
      8 C          64.9622   84.4595   14.1100 C.ar    1  UNL1        0.0403
      9 C          64.8861   85.5910   15.0918 C.ar    1  UNL1        0.0375
     10 C          63.5688   85.4992   15.8036 C.ar    1  UNL1        0.1385
     11 O          62.8310   84.3111   15.2617 O.2     1  UNL1       -0.4563
     12 C          63.0761   86.4319   16.8700 C.3     1  UNL1        0.1307
     13 N          61.6728   86.3078   17.3850 N.3     1  UNL1       -0.3148
     14 H          61.0155   86.5381   16.6398 H       1  UNL1        0.1192
     15 H          61.5393   86.9497   18.1664 H       1  UNL1        0.1192
     16 C          63.8099   83.7580   11.2186 C.3     1  UNL1        0.0266
     17 C          62.0683   85.6532   11.5719 C.3     1  UNL1        0.0004
     18 C          62.7635   84.6800   10.6665 C.3     1  UNL1        0.0047
@<TRIPOS>BOND
     1    17    18    1
     2    18    16    1
     3    16     1    1
     4     1     2   ar
     5     2     3   ar
     6     3     4   ar
     7     4     5   ar
     8     5     6   ar
     9     6     7    1
    10     7     8   ar
    11     8     9   ar
    12     9    10   ar
    13    10    12    1
    14    12    13    1
    15    10    11   ar
    16     6     1   ar
    17    11     7   ar
    18    13    14    1
    19    13    15    1
@<TRIPOS>MOLECULE
*****
 18 19 0 0 0
SMALL
GASTEIGER

@<TRIPOS>ATOM
      1 C          65.5309   92.5690   12.2799 C.ar    1  UNL1       -0.0162
      2 C          66.4096   93.4298   13.1383 C.ar    1  UNL1        0.0165
      3 C          66.3948   93.2652   14.6292 C.ar    1  UNL1        0.0986
      4 N          65.5012   92.2398   15.2616 N.ar    1  UNL1       -0.2422
      5 C          64.6224   91.3791   14.4032 C.ar    1  UNL1        0.1016
      6 C          64.6373   91.5437   12.9124 C.ar    1  UNL1        0.0497
      7 C          63.7585   90.6829   12.0540 C.ar    1  UNL1        0.1461
      8 C          63.0547   91.1139   10.8014 C.ar    1  UNL1        0.0403
      9 C          62.2905   89.9374   10.2708 C.ar    1  UNL1        0.0375
     10 C          62.5218   88.7791   11.1954 C.ar    1  UNL1        0.1385
     11 O          63.4291   89.2399   12.2975 O.2     1  UNL1       -0.4563
     12 C          61.9469   87.4019   11.0445 C.3     1  UNL1        0.1307
     13 N          60.4921   87.1622   11.3202 N.3     1  UNL1       -0.3148
     14 H          60.3035   87.3184   12.3104 H       1  UNL1        0.1192
     15 H          60.2537   86.2010   11.0761 H       1  UNL1        0.1192
     16 C          65.5457   92.7337   10.7890 C.3     1  UNL1        0.0266
     17 C          67.9456   92.2022    9.9477 C.3     1  UNL1        0.0004
     18 C          66.8037   93.1637   10.0945 C.3     1  UNL1        0.0047
@<TRIPOS>BOND
     1    17    18    1
     2    18    16    1
     3    16     1    1
     4     1     2   ar
     5     2     3   ar
     6     3     4   ar
     7     4     5   ar
     8     5     6   ar
     9     6     7    1
    10     7     8   ar
    11     8     9   ar
    12     9    10   ar
    13    10    12    1
    14    12    13    1
    15    10    11   ar
    16     6     1   ar
    17    11     7   ar
    18    13    14    1
    19    13    15    1
@<TRIPOS>MOLECULE
*****
 18 19 0 0 0
SMALL
GASTEIGER

@<TRIPOS>ATOM
      1 C          66.8790   94.3011   10.5899 C.ar    1  UNL1       -0.0162
      2 C          67.3442   94.8677    9.2813 C.ar    1  UNL1        0.0165
      3 C          68.0995   94.0031    8.3158 C.ar    1  UNL1        0.0986
      4 N          68.3896   92.5720    8.6590 N.ar    1  UNL1       -0.2422
      5 C          67.9244   92.0055    9.9676 C.ar    1  UNL1        0.1016
      6 C          67.1691   92.8701   10.9331 C.ar    1  UNL1        0.0497
      7 C          66.7039   92.3035   12.2418 C.ar    1  UNL1        0.1461
      8 C          67.5524   92.0844   13.4592 C.ar    1  UNL1        0.0403
      9 C          66.6814   91.5020   14.5326 C.ar    1  UNL1        0.0375
     10 C          65.2945   91.3612   13.9786 C.ar    1  UNL1        0.1385
     11 O          65.3084   91.8565   12.5628 O.2     1  UNL1       -0.4563
     12 C          64.1030   90.8200   14.7117 C.3     1  UNL1        0.1307
     13 N          63.5859   91.5282   15.9286 N.3     1  UNL1       -0.3148
     14 H          64.2817   91.4776   16.6728 H       1  UNL1        0.1192
     15 H          62.7224   91.0834   16.2397 H       1  UNL1        0.1192
     16 C          66.1237   95.1657   11.5554 C.3     1  UNL1        0.0266
     17 C          64.7228   96.8455   10.1534 C.3     1  UNL1        0.0004
     18 C          65.7777   96.5776   11.1856 C.3     1  UNL1        0.0047
@<TRIPOS>BOND
     1    17    18    1
     2    18    16    1
     3    16     1    1
     4     1     2   ar
     5     2     3   ar
     6     3     4   ar
     7     4     5   ar
     8     5     6   ar
     9     6     7    1
    10     7     8   ar
    11     8     9   ar
    12     9    10   ar
    13    10    12    1
    14    12    13    1
    15    10    11   ar
    16     6     1   ar
    17    11     7   ar
    18    13    14    1
    19    13    15    1
@<TRIPOS>MOLECULE
*****
 18 19 0 0 0
SMALL
GASTEIGER

@<TRIPOS>ATOM
      1 C          63.7436   83.5582   11.6521 C.ar    1  UNL1       -0.0162
      2 C          64.1218   82.1882   12.1316 C.ar    1  UNL1        0.0165
      3 C          63.6483   81.7049   13.4704 C.ar    1  UNL1        0.0986
      4 N          62.7965   82.5915   14.3296 N.ar    1  UNL1       -0.2422
      5 C          62.4183   83.9615   13.8501 C.ar    1  UNL1        0.1016
      6 C          62.8918   84.4449   12.5113 C.ar    1  UNL1        0.0497
      7 C          62.5136   85.8150   12.0318 C.ar    1  UNL1        0.1461
      8 C          61.3666   86.1457   11.1235 C.ar    1  UNL1        0.0403
      9 C          61.3601   87.6300   10.9068 C.ar    1  UNL1        0.0375
     10 C          62.5030   88.2166   11.6813 C.ar    1  UNL1        0.1385
     11 O          63.2158   87.0948   12.3766 O.2     1  UNL1       -0.4563
     12 C          62.8687   89.6697   11.7486 C.3     1  UNL1        0.1307
     13 N          62.6942   90.4284   13.0308 N.3     1  UNL1       -0.3148
     14 H          61.7014   90.4916   13.2560 H       1  UNL1        0.1192
     15 H          63.0795   91.3669   12.9256 H       1  UNL1        0.1192
     16 C          64.2171   84.0415   10.3134 C.3     1  UNL1        0.0266
     17 C          63.0877   85.1290    8.2418 C.3     1  UNL1        0.0004
     18 C          63.3197   83.9327    9.1164 C.3     1  UNL1        0.0047
@<TRIPOS>BOND
     1    17    18    1
     2    18    16    1
     3    16     1    1
     4     1     2   ar
     5     2     3   ar
     6     3     4   ar
     7     4     5   ar
     8     5     6   ar
     9     6     7    1
    10     7     8   ar
    11     8     9   ar
    12     9    10   ar
    13    10    12    1
    14    12    13    1
    15    10    11   ar
    16     6     1   ar
    17    11     7   ar
    18    13    14    1
    19    13    15    1
@<TRIPOS>MOLECULE
*****
 18 19 0 0 0
SMALL
GASTEIGER

@<TRIPOS>ATOM
      1 C          63.5398   84.3564   12.7660 C.ar    1  UNL1       -0.0162
      2 C          64.3108   83.0867   12.9737 C.ar    1  UNL1        0.0165
      3 C          64.6565   82.2186   11.8003 C.ar    1  UNL1        0.0986
      4 N          64.2311   82.6202   10.4192 N.ar    1  UNL1       -0.2422
      5 C          63.4601   83.8899   10.2114 C.ar    1  UNL1        0.1016
      6 C          63.1144   84.7580   11.3848 C.ar    1  UNL1        0.0497
      7 C          62.3433   86.0278   11.1770 C.ar    1  UNL1        0.1461
      8 C          61.0862   86.1743   10.3719 C.ar    1  UNL1        0.0403
      9 C          60.6600   87.6110   10.4351 C.ar    1  UNL1        0.0375
     10 C          61.6537   88.3526   11.2793 C.ar    1  UNL1        0.1385
     11 O          62.6941   87.3741   11.7378 O.2     1  UNL1       -0.4563
     12 C          61.6140   89.8158   11.6074 C.3     1  UNL1        0.1307
     13 N          60.2999   90.5370   11.6609 N.3     1  UNL1       -0.3148
     14 H          59.8864   90.5598   10.7287 H       1  UNL1        0.1192
     15 H          60.4487   91.4908   11.9902 H       1  UNL1        0.1192
     16 C          63.1942   85.2246   13.9394 C.3     1  UNL1        0.0266
     17 C          64.4289   87.3648   14.7423 C.3     1  UNL1        0.0004
     18 C          64.2847   85.8717   14.7405 C.3     1  UNL1        0.0047
@<TRIPOS>BOND
     1    17    18    1
     2    18    16    1
     3    16     1    1
     4     1     2   ar
     5     2     3   ar
     6     3     4   ar
     7     4     5   ar
     8     5     6   ar
     9     6     7    1
    10     7     8   ar
    11     8     9   ar
    12     9    10   ar
    13    10    12    1
    14    12    13    1
    15    10    11   ar
    16     6     1   ar
    17    11     7   ar
    18    13    14    1
    19    13    15    1
@<TRIPOS>MOLECULE
*****
 18 19 0 0 0
SMALL
GASTEIGER

@<TRIPOS>ATOM
      1 C          61.4300   87.6176   10.1088 C.ar    1  UNL1       -0.0162
      2 C          61.1137   88.9866    9.5839 C.ar    1  UNL1        0.0165
      3 C          61.7135   90.1970   10.2361 C.ar    1  UNL1        0.0986
      4 N          62.6297   90.0383   11.4131 N.ar    1  UNL1       -0.2422
      5 C          62.9460   88.6692   11.9380 C.ar    1  UNL1        0.1016
      6 C          62.3462   87.4589   11.2859 C.ar    1  UNL1        0.0497
      7 C          62.6626   86.0898   11.8108 C.ar    1  UNL1        0.1461
      8 C          62.3983   84.7924   11.1059 C.ar    1  UNL1        0.0403
      9 C          62.8711   83.6785   11.9923 C.ar    1  UNL1        0.0375
     10 C          63.4278   84.2875   13.2451 C.ar    1  UNL1        0.1385
     11 O          63.2988   85.7777   13.1329 O.2     1  UNL1       -0.4563
     12 C          64.0109   83.5379   14.4061 C.3     1  UNL1        0.1307
     13 N          64.6154   84.2881   15.5558 N.3     1  UNL1       -0.3148
     14 H          65.4478   84.7845   15.2377 H       1  UNL1        0.1192
     15 H          64.8721   83.6315   16.2929 H       1  UNL1        0.1192
     16 C          60.8302   86.4072    9.4567 C.3     1  UNL1        0.0266
     17 C          58.9902   86.7138    7.6483 C.3     1  UNL1        0.0004
     18 C          60.4221   86.4572    8.0142 C.3     1  UNL1        0.0047
@<TRIPOS>BOND
     1    17    18    1
     2    18    16    1
     3    16     1    1
     4     1     2   ar
     5     2     3   ar
     6     3     4   ar
     7     4     5   ar
     8     5     6   ar
     9     6     7    1
    10     7     8   ar
    11     8     9   ar
    12     9    10   ar
    13    10    12    1
    14    12    13    1
    15    10    11   ar
    16     6     1   ar
    17    11     7   ar
    18    13    14    1
    19    13    15    1
