@<TRIPOS>MOLECULE
*****
 27 29 0 0 0
SMALL
GASTEIGER

@<TRIPOS>ATOM
      1 C          64.7193   91.6784   12.1982 C.ar    1  UNL1       -0.0099
      2 C          63.9031   91.5666   10.9447 C.ar    1  UNL1       -0.0002
      3 C          62.6591   90.7286   10.9319 C.ar    1  UNL1        0.0366
      4 C          62.2313   90.0024   12.1727 C.ar    1  UNL1        0.1387
      5 C          63.0475   90.1142   13.4262 C.ar    1  UNL1        0.0366
      6 C          64.2915   90.9522   13.4390 C.ar    1  UNL1       -0.0002
      7 C          65.9634   92.5164   12.2109 C.3     1  UNL1        0.0917
      8 C          68.8591   92.2970    8.7734 C.3     1  UNL1        0.0900
      9 C          67.8939   92.3701    9.9192 C.1     1  UNL1       -0.0897
     10 C          66.9286   92.4433   11.0651 C.1     1  UNL1       -0.0872
     11 C          66.2421   93.4275   13.3694 C.3     1  UNL1        0.0591
     12 C          67.1480   92.9770   14.4768 C.2     1  UNL1        0.0517
     13 O          66.6176   92.8474   15.8739 O.co2   1  UNL1       -0.5491
     14 O          68.5844   92.6561   14.1871 O.co2   1  UNL1       -0.5491
     15 O          60.9872   89.1644   12.1600 O.3     1  UNL1       -0.4714
     16 C          60.6789   88.2977   10.9753 C.3     1  UNL1        0.2525
     17 C          61.4867   87.0596   10.7212 C.3     1  UNL1        0.2526
     18 C          62.0686   86.8097    9.3614 C.3     1  UNL1        0.2526
     19 O          62.8765   85.5716    9.1074 O.3     1  UNL1       -0.4684
     20 C          63.1024   84.5835   10.2130 C.ar    1  UNL1        0.1724
     21 C          63.9103   83.3454    9.9589 C.ar    1  UNL1        0.0409
     22 C          64.1362   82.3572   11.0646 C.ar    1  UNL1        0.0147
     23 C          63.5542   82.6071   12.4244 C.ar    1  UNL1        0.0609
     24 CL         63.7801   81.6190   13.5300 Cl      1  UNL1       -0.0821
     25 C          62.7464   83.8452   12.6784 C.ar    1  UNL1        0.0514
     26 C          62.5205   84.8334   11.5728 C.ar    1  UNL1        0.1732
     27 O          61.7127   86.0714   11.8268 O.3     1  UNL1       -0.4683
@<TRIPOS>UNITY_ATOM_ATTR
13 1
charge -1
@<TRIPOS>BOND
     1     8     9    1
     2     9    10    3
     3     7    10    1
     4     7    11    1
     5    11    12    1
     6    12    13   ar
     7    12    14   ar
     8     7     1    1
     9     1     2   ar
    10     2     3   ar
    11     3     4   ar
    12     4    15    1
    13    15    16    1
    14    17    16    1
    15    17    18    1
    16    18    19    1
    17    19    20    1
    18    20    21   ar
    19    21    22   ar
    20    22    23   ar
    21    23    24    1
    22    23    25   ar
    23    25    26   ar
    24    26    27    1
    25     4     5   ar
    26     5     6   ar
    27     6     1   ar
    28    27    17    1
    29    26    20   ar
@<TRIPOS>MOLECULE
*****
 27 29 0 0 0
SMALL
GASTEIGER

@<TRIPOS>ATOM
      1 C          64.5958   91.6249   11.8701 C.ar    1  UNL1       -0.0099
      2 C          64.2202   90.8959   13.1261 C.ar    1  UNL1       -0.0002
      3 C          62.9710   90.0667   13.1669 C.ar    1  UNL1        0.0366
      4 C          62.0974   89.9664   11.9517 C.ar    1  UNL1        0.1387
      5 C          62.4730   90.6954   10.6958 C.ar    1  UNL1        0.0366
      6 C          63.7222   91.5246   10.6549 C.ar    1  UNL1       -0.0002
      7 C          65.8451   92.4542   11.8293 C.3     1  UNL1        0.0917
      8 C          68.5604   92.6098   15.4145 C.3     1  UNL1        0.0900
      9 C          67.6553   92.5579   14.2194 C.1     1  UNL1       -0.0897
     10 C          66.7502   92.5061   13.0244 C.1     1  UNL1       -0.0872
     11 C          66.1893   93.2315   10.5935 C.3     1  UNL1        0.0591
     12 C          67.5426   93.0797    9.9646 C.2     1  UNL1        0.0517
     13 O          68.3489   94.2959    9.6171 O.co2   1  UNL1       -0.5491
     14 O          68.0896   91.7116    9.6832 O.co2   1  UNL1       -0.5491
     15 O          60.8481   89.1371   11.9925 O.3     1  UNL1       -0.4714
     16 C          60.5365   88.1946   10.8680 C.3     1  UNL1        0.2525
     17 C          61.3913   86.9818   10.6472 C.3     1  UNL1        0.2526
     18 C          62.0106   86.7353    9.3035 C.3     1  UNL1        0.2526
     19 O          62.8653   85.5226    9.0828 O.3     1  UNL1       -0.4684
     20 C          63.1006   84.5564   10.2058 C.ar    1  UNL1        0.1724
     21 C          63.9554   83.3436    9.9850 C.ar    1  UNL1        0.0409
     22 C          64.1907   82.3774   11.1080 C.ar    1  UNL1        0.0147
     23 C          63.5713   82.6240   12.4517 C.ar    1  UNL1        0.0609
     24 CL         63.8067   81.6578   13.5747 Cl      1  UNL1       -0.0821
     25 C          62.7166   83.8367   12.6725 C.ar    1  UNL1        0.0514
     26 C          62.4813   84.8029   11.5495 C.ar    1  UNL1        0.1732
     27 O          61.6266   86.0156   11.7702 O.3     1  UNL1       -0.4683
@<TRIPOS>UNITY_ATOM_ATTR
13 1
charge -1
@<TRIPOS>BOND
     1     8     9    1
     2     9    10    3
     3     7    10    1
     4     7    11    1
     5    11    12    1
     6    12    13   ar
     7    12    14   ar
     8     7     1    1
     9     1     2   ar
    10     2     3   ar
    11     3     4   ar
    12     4    15    1
    13    15    16    1
    14    17    16    1
    15    17    18    1
    16    18    19    1
    17    19    20    1
    18    20    21   ar
    19    21    22   ar
    20    22    23   ar
    21    23    24    1
    22    23    25   ar
    23    25    26   ar
    24    26    27    1
    25     4     5   ar
    26     5     6   ar
    27     6     1   ar
    28    27    17    1
    29    26    20   ar
@<TRIPOS>MOLECULE
*****
 27 29 0 0 0
SMALL
GASTEIGER

@<TRIPOS>ATOM
      1 C          64.8690   92.0770   11.5965 C.ar    1  UNL1       -0.0099
      2 C          64.6301   91.4620   12.9436 C.ar    1  UNL1       -0.0002
      3 C          63.4603   90.5468   13.1534 C.ar    1  UNL1        0.0366
      4 C          62.5295   90.2466   12.0161 C.ar    1  UNL1        0.1387
      5 C          62.7684   90.8617   10.6690 C.ar    1  UNL1        0.0366
      6 C          63.9382   91.7769   10.4593 C.ar    1  UNL1       -0.0002
      7 C          66.0388   92.9923   11.3868 C.3     1  UNL1        0.0917
      8 C          69.2146   91.9317    8.3802 C.3     1  UNL1        0.0900
      9 C          68.1560   92.2852    9.3824 C.1     1  UNL1       -0.0897
     10 C          67.0974   92.6387   10.3846 C.1     1  UNL1       -0.0872
     11 C          66.1500   94.2610   12.1792 C.3     1  UNL1        0.0591
     12 C          65.9527   95.5862   11.5048 C.2     1  UNL1        0.0517
     13 O          65.6467   95.6428   10.0374 O.co2   1  UNL1       -0.5491
     14 O          66.0613   96.8549   12.2978 O.co2   1  UNL1       -0.5491
     15 O          61.3597   89.3314   12.2259 O.3     1  UNL1       -0.4714
     16 C          60.8938   88.4423   11.1113 C.3     1  UNL1        0.2525
     17 C          61.6324   87.1729   10.8057 C.3     1  UNL1        0.2526
     18 C          62.1595   86.9261    9.4233 C.3     1  UNL1        0.2526
     19 O          62.8981   85.6568    9.1178 O.3     1  UNL1       -0.4684
     20 C          63.1095   84.6343   10.1948 C.ar    1  UNL1        0.1724
     21 C          63.8481   83.3650    9.8892 C.ar    1  UNL1        0.0409
     22 C          64.0596   82.3425   10.9661 C.ar    1  UNL1        0.0147
     23 C          63.5324   82.5894   12.3486 C.ar    1  UNL1        0.0609
     24 CL         63.7438   81.5669   13.4256 Cl      1  UNL1       -0.0821
     25 C          62.7938   83.8586   12.6541 C.ar    1  UNL1        0.0514
     26 C          62.5824   84.8811   11.5772 C.ar    1  UNL1        0.1732
     27 O          61.8438   86.1504   11.8827 O.3     1  UNL1       -0.4683
@<TRIPOS>UNITY_ATOM_ATTR
13 1
charge -1
@<TRIPOS>BOND
     1     8     9    1
     2     9    10    3
     3     7    10    1
     4     7    11    1
     5    11    12    1
     6    12    13   ar
     7    12    14   ar
     8     7     1    1
     9     1     2   ar
    10     2     3   ar
    11     3     4   ar
    12     4    15    1
    13    15    16    1
    14    17    16    1
    15    17    18    1
    16    18    19    1
    17    19    20    1
    18    20    21   ar
    19    21    22   ar
    20    22    23   ar
    21    23    24    1
    22    23    25   ar
    23    25    26   ar
    24    26    27    1
    25     4     5   ar
    26     5     6   ar
    27     6     1   ar
    28    27    17    1
    29    26    20   ar
@<TRIPOS>MOLECULE
*****
 27 29 0 0 0
SMALL
GASTEIGER

@<TRIPOS>ATOM
      1 C          62.9080   84.3921   10.6606 C.ar    1  UNL1       -0.0099
      2 C          61.9241   85.1959   11.4581 C.ar    1  UNL1       -0.0002
      3 C          61.2413   86.3774   10.8355 C.ar    1  UNL1        0.0366
      4 C          61.5422   86.7551    9.4154 C.ar    1  UNL1        0.1387
      5 C          62.5261   85.9513    8.6179 C.ar    1  UNL1        0.0366
      6 C          63.2090   84.7698    9.2405 C.ar    1  UNL1       -0.0002
      7 C          63.5909   83.2106   11.2833 C.3     1  UNL1        0.0917
      8 C          62.8353   79.0735    9.6820 C.3     1  UNL1        0.0900
      9 C          63.0871   80.4525   10.2157 C.1     1  UNL1       -0.0897
     10 C          63.3390   81.8316   10.7495 C.1     1  UNL1       -0.0872
     11 C          64.5256   83.4080   12.4397 C.3     1  UNL1        0.0591
     12 C          63.9867   83.4652   13.8383 C.2     1  UNL1        0.0517
     13 O          63.6955   82.1957   14.5823 O.co2   1  UNL1       -0.5491
     14 O          63.7389   84.7919   14.4930 O.co2   1  UNL1       -0.5491
     15 O          60.8593   87.9367    8.7927 O.3     1  UNL1       -0.4714
     16 C          60.4966   89.1233    9.6354 C.3     1  UNL1        0.2525
     17 C          61.5036   89.7074   10.5815 C.3     1  UNL1        0.2526
     18 C          61.4408   89.3749   12.0428 C.3     1  UNL1        0.2526
     19 O          62.4478   89.9589   12.9887 O.3     1  UNL1       -0.4684
     20 C          63.5176   90.8754   12.4733 C.ar    1  UNL1        0.1724
     21 C          64.5246   91.4595   13.4193 C.ar    1  UNL1        0.0409
     22 C          65.5943   92.3760   12.9040 C.ar    1  UNL1        0.0147
     23 C          65.6571   92.7085   11.4426 C.ar    1  UNL1        0.0609
     24 CL         66.7268   93.6250   10.9272 Cl      1  UNL1       -0.0821
     25 C          64.6501   92.1245   10.4966 C.ar    1  UNL1        0.0514
     26 C          63.5803   91.2079   11.0120 C.ar    1  UNL1        0.1732
     27 O          62.5734   90.6239   10.0661 O.3     1  UNL1       -0.4683
@<TRIPOS>UNITY_ATOM_ATTR
13 1
charge -1
@<TRIPOS>BOND
     1     8     9    1
     2     9    10    3
     3     7    10    1
     4     7    11    1
     5    11    12    1
     6    12    13   ar
     7    12    14   ar
     8     7     1    1
     9     1     2   ar
    10     2     3   ar
    11     3     4   ar
    12     4    15    1
    13    15    16    1
    14    17    16    1
    15    17    18    1
    16    18    19    1
    17    19    20    1
    18    20    21   ar
    19    21    22   ar
    20    22    23   ar
    21    23    24    1
    22    23    25   ar
    23    25    26   ar
    24    26    27    1
    25     4     5   ar
    26     5     6   ar
    27     6     1   ar
    28    27    17    1
    29    26    20   ar
@<TRIPOS>MOLECULE
*****
 27 29 0 0 0
SMALL
GASTEIGER

@<TRIPOS>ATOM
      1 C          64.7892   91.9209   12.2236 C.ar    1  UNL1       -0.0099
      2 C          64.1517   90.9567   13.1796 C.ar    1  UNL1       -0.0002
      3 C          63.0071   90.0989   12.7279 C.ar    1  UNL1        0.0366
      4 C          62.5000   90.2053   11.3203 C.ar    1  UNL1        0.1387
      5 C          63.1376   91.1695   10.3643 C.ar    1  UNL1        0.0366
      6 C          64.2821   92.0273   10.8160 C.ar    1  UNL1       -0.0002
      7 C          65.9339   92.7787   12.6753 C.3     1  UNL1        0.0917
      8 C          66.5469   96.8507   10.8607 C.3     1  UNL1        0.0900
      9 C          66.3425   95.4934   11.4656 C.1     1  UNL1       -0.0897
     10 C          66.1382   94.1361   12.0704 C.1     1  UNL1       -0.0872
     11 C          66.8741   92.2792   13.7319 C.3     1  UNL1        0.0591
     12 C          66.7823   92.8130   15.1307 C.2     1  UNL1        0.0517
     13 O          65.5396   92.5867   15.9397 O.co2   1  UNL1       -0.5491
     14 O          67.9331   93.5731   15.7205 O.co2   1  UNL1       -0.5491
     15 O          61.3554   89.3475   10.8686 O.3     1  UNL1       -0.4714
     16 C          61.5544   88.3519    9.7644 C.3     1  UNL1        0.2525
     17 C          62.0842   86.9834   10.0749 C.3     1  UNL1        0.2526
     18 C          62.2448   85.9743    8.9767 C.3     1  UNL1        0.2526
     19 O          62.7747   84.6058    9.2873 O.3     1  UNL1       -0.4684
     20 C          63.1439   84.2464   10.6960 C.ar    1  UNL1        0.1724
     21 C          63.6738   82.8778   11.0065 C.ar    1  UNL1        0.0409
     22 C          64.0431   82.5184   12.4152 C.ar    1  UNL1        0.0147
     23 C          63.8824   83.5275   13.5134 C.ar    1  UNL1        0.0609
     24 CL         64.2517   83.1681   14.9221 Cl      1  UNL1       -0.0821
     25 C          63.3526   84.8960   13.2028 C.ar    1  UNL1        0.0514
     26 C          62.9833   85.2554   11.7941 C.ar    1  UNL1        0.1732
     27 O          62.4535   86.6239   11.4836 O.3     1  UNL1       -0.4683
@<TRIPOS>UNITY_ATOM_ATTR
13 1
charge -1
@<TRIPOS>BOND
     1     8     9    1
     2     9    10    3
     3     7    10    1
     4     7    11    1
     5    11    12    1
     6    12    13   ar
     7    12    14   ar
     8     7     1    1
     9     1     2   ar
    10     2     3   ar
    11     3     4   ar
    12     4    15    1
    13    15    16    1
    14    17    16    1
    15    17    18    1
    16    18    19    1
    17    19    20    1
    18    20    21   ar
    19    21    22   ar
    20    22    23   ar
    21    23    24    1
    22    23    25   ar
    23    25    26   ar
    24    26    27    1
    25     4     5   ar
    26     5     6   ar
    27     6     1   ar
    28    27    17    1
    29    26    20   ar
@<TRIPOS>MOLECULE
*****
 27 29 0 0 0
SMALL
GASTEIGER

@<TRIPOS>ATOM
      1 C          63.0858   84.2385   11.4065 C.ar    1  UNL1       -0.0099
      2 C          62.8590   85.3833   12.3488 C.ar    1  UNL1       -0.0002
      3 C          62.4768   86.7312   11.8130 C.ar    1  UNL1        0.0366
      4 C          62.3215   86.9343   10.3350 C.ar    1  UNL1        0.1387
      5 C          62.5482   85.7894    9.3927 C.ar    1  UNL1        0.0366
      6 C          62.9304   84.4415    9.9285 C.ar    1  UNL1       -0.0002
      7 C          63.4679   82.8905   11.9423 C.3     1  UNL1        0.0917
      8 C          62.7341   79.1985    9.4764 C.3     1  UNL1        0.0900
      9 C          62.9787   80.4292   10.2983 C.1     1  UNL1       -0.0897
     10 C          63.2233   81.6598   11.1203 C.1     1  UNL1       -0.0872
     11 C          64.0946   82.7732   13.3000 C.3     1  UNL1        0.0591
     12 C          63.2724   82.3171   14.4687 C.2     1  UNL1        0.0517
     13 O          63.0179   83.2492   15.6161 O.co2   1  UNL1       -0.5491
     14 O          62.7046   80.9288   14.4900 O.co2   1  UNL1       -0.5491
     15 O          61.9393   88.2823    9.7992 O.3     1  UNL1       -0.4714
     16 C          61.6592   89.4130   10.7441 C.3     1  UNL1        0.2525
     17 C          62.7486   90.3812   11.0991 C.3     1  UNL1        0.2526
     18 C          63.2640   91.3413   10.0683 C.3     1  UNL1        0.2526
     19 O          64.3533   92.3093   10.4234 O.3     1  UNL1       -0.4684
     20 C          64.9273   92.3173   11.8092 C.ar    1  UNL1        0.1724
     21 C          66.0167   93.2855   12.1642 C.ar    1  UNL1        0.0409
     22 C          66.5906   93.2935   13.5501 C.ar    1  UNL1        0.0147
     23 C          66.0751   92.3333   14.5809 C.ar    1  UNL1        0.0609
     24 CL         66.6491   92.3413   15.9667 Cl      1  UNL1       -0.0821
     25 C          64.9858   91.3653   14.2258 C.ar    1  UNL1        0.0514
     26 C          64.4119   91.3573   12.8400 C.ar    1  UNL1        0.1732
     27 O          63.3225   90.3892   12.4849 O.3     1  UNL1       -0.4683
@<TRIPOS>UNITY_ATOM_ATTR
13 1
charge -1
@<TRIPOS>BOND
     1     8     9    1
     2     9    10    3
     3     7    10    1
     4     7    11    1
     5    11    12    1
     6    12    13   ar
     7    12    14   ar
     8     7     1    1
     9     1     2   ar
    10     2     3   ar
    11     3     4   ar
    12     4    15    1
    13    15    16    1
    14    17    16    1
    15    17    18    1
    16    18    19    1
    17    19    20    1
    18    20    21   ar
    19    21    22   ar
    20    22    23   ar
    21    23    24    1
    22    23    25   ar
    23    25    26   ar
    24    26    27    1
    25     4     5   ar
    26     5     6   ar
    27     6     1   ar
    28    27    17    1
    29    26    20   ar
@<TRIPOS>MOLECULE
*****
 27 29 0 0 0
SMALL
GASTEIGER

@<TRIPOS>ATOM
      1 C          63.3697   84.4908   14.6361 C.ar    1  UNL1       -0.0099
      2 C          64.2702   85.6368   14.2814 C.ar    1  UNL1       -0.0002
      3 C          64.3096   86.8571   15.1528 C.ar    1  UNL1        0.0366
      4 C          63.4485   86.9314   16.3787 C.ar    1  UNL1        0.1387
      5 C          62.5480   85.7854   16.7333 C.ar    1  UNL1        0.0366
      6 C          62.5086   84.5651   15.8620 C.ar    1  UNL1       -0.0002
      7 C          63.3303   83.2704   13.7647 C.3     1  UNL1        0.0917
      8 C          60.0151   80.2663   14.2486 C.3     1  UNL1        0.0900
      9 C          61.1202   81.2676   14.0873 C.1     1  UNL1       -0.0897
     10 C          62.2252   82.2690   13.9260 C.1     1  UNL1       -0.0872
     11 C          64.3959   83.0515   12.7320 C.3     1  UNL1        0.0591
     12 C          64.0973   83.2965   11.2826 C.2     1  UNL1        0.0517
     13 O          64.8226   82.5177   10.2254 O.co2   1  UNL1       -0.5491
     14 O          63.0735   84.3202   10.8903 O.co2   1  UNL1       -0.5491
     15 O          63.4879   88.1518   17.2501 O.3     1  UNL1       -0.4714
     16 C          62.8536   89.4280   16.7825 C.3     1  UNL1        0.2525
     17 C          63.1538   89.9562   15.4110 C.3     1  UNL1        0.2526
     18 C          64.3196   90.8763   15.2002 C.3     1  UNL1        0.2526
     19 O          64.6197   91.4045   13.8288 O.3     1  UNL1       -0.4684
     20 C          63.7542   91.0125   12.6681 C.ar    1  UNL1        0.1724
     21 C          64.0544   91.5407   11.2966 C.ar    1  UNL1        0.0409
     22 C          63.1889   91.1488   10.1359 C.ar    1  UNL1        0.0147
     23 C          62.0231   90.2287   10.3467 C.ar    1  UNL1        0.0609
     24 CL         61.1576   89.8367    9.1860 Cl      1  UNL1       -0.0821
     25 C          61.7229   89.7005   11.7181 C.ar    1  UNL1        0.0514
     26 C          62.5885   90.0924   12.8788 C.ar    1  UNL1        0.1732
     27 O          62.2883   89.5643   14.2503 O.3     1  UNL1       -0.4683
@<TRIPOS>UNITY_ATOM_ATTR
13 1
charge -1
@<TRIPOS>BOND
     1     8     9    1
     2     9    10    3
     3     7    10    1
     4     7    11    1
     5    11    12    1
     6    12    13   ar
     7    12    14   ar
     8     7     1    1
     9     1     2   ar
    10     2     3   ar
    11     3     4   ar
    12     4    15    1
    13    15    16    1
    14    17    16    1
    15    17    18    1
    16    18    19    1
    17    19    20    1
    18    20    21   ar
    19    21    22   ar
    20    22    23   ar
    21    23    24    1
    22    23    25   ar
    23    25    26   ar
    24    26    27    1
    25     4     5   ar
    26     5     6   ar
    27     6     1   ar
    28    27    17    1
    29    26    20   ar
@<TRIPOS>MOLECULE
*****
 27 29 0 0 0
SMALL
GASTEIGER

@<TRIPOS>ATOM
      1 C          65.5662   92.1832   12.3568 C.ar    1  UNL1       -0.0099
      2 C          66.0805   91.7579   13.7002 C.ar    1  UNL1       -0.0002
      3 C          65.3545   90.7034   14.4818 C.ar    1  UNL1        0.0366
      4 C          64.1142   90.0742   13.9200 C.ar    1  UNL1        0.1387
      5 C          63.5999   90.4995   12.5766 C.ar    1  UNL1        0.0366
      6 C          64.3259   91.5540   11.7950 C.ar    1  UNL1       -0.0002
      7 C          66.2923   93.2377   11.5752 C.3     1  UNL1        0.0917
      8 C          69.1429   92.0497    8.3022 C.3     1  UNL1        0.0900
      9 C          68.1927   92.4457    9.3932 C.1     1  UNL1       -0.0897
     10 C          67.2425   92.8417   10.4842 C.1     1  UNL1       -0.0872
     11 C          66.0682   94.6882   11.8847 C.3     1  UNL1        0.0591
     12 C          66.0705   95.7003   10.7776 C.2     1  UNL1        0.0517
     13 O          64.7777   96.1223   10.1446 O.co2   1  UNL1       -0.5491
     14 O          67.3655   96.2904   10.3035 O.co2   1  UNL1       -0.5491
     15 O          63.3881   89.0196   14.7015 O.3     1  UNL1       -0.4714
     16 C          64.1497   87.8801   15.3109 C.3     1  UNL1        0.2525
     17 C          63.6875   86.4692   15.0963 C.3     1  UNL1        0.2526
     18 C          63.0781   85.6990   16.2300 C.3     1  UNL1        0.2526
     19 O          62.6160   84.2882   16.0154 O.3     1  UNL1       -0.4684
     20 C          62.7633   83.6477   14.6670 C.ar    1  UNL1        0.1724
     21 C          62.3012   82.2368   14.4524 C.ar    1  UNL1        0.0409
     22 C          62.4485   81.5962   13.1041 C.ar    1  UNL1        0.0147
     23 C          63.0580   82.3665   11.9704 C.ar    1  UNL1        0.0609
     24 CL         63.2053   81.7260   10.6221 Cl      1  UNL1       -0.0821
     25 C          63.5201   83.7773   12.1850 C.ar    1  UNL1        0.0514
     26 C          63.3728   84.4179   13.5333 C.ar    1  UNL1        0.1732
     27 O          63.8349   85.8287   13.7480 O.3     1  UNL1       -0.4683
@<TRIPOS>UNITY_ATOM_ATTR
13 1
charge -1
@<TRIPOS>BOND
     1     8     9    1
     2     9    10    3
     3     7    10    1
     4     7    11    1
     5    11    12    1
     6    12    13   ar
     7    12    14   ar
     8     7     1    1
     9     1     2   ar
    10     2     3   ar
    11     3     4   ar
    12     4    15    1
    13    15    16    1
    14    17    16    1
    15    17    18    1
    16    18    19    1
    17    19    20    1
    18    20    21   ar
    19    21    22   ar
    20    22    23   ar
    21    23    24    1
    22    23    25   ar
    23    25    26   ar
    24    26    27    1
    25     4     5   ar
    26     5     6   ar
    27     6     1   ar
    28    27    17    1
    29    26    20   ar
@<TRIPOS>MOLECULE
*****
 27 29 0 0 0
SMALL
GASTEIGER

@<TRIPOS>ATOM
      1 C          63.2529   84.6221   14.6681 C.ar    1  UNL1       -0.0099
      2 C          64.1497   85.7653   14.2953 C.ar    1  UNL1       -0.0002
      3 C          64.2261   86.9768   15.1765 C.ar    1  UNL1        0.0366
      4 C          63.4058   87.0450   16.4304 C.ar    1  UNL1        0.1387
      5 C          62.5091   85.9018   16.8032 C.ar    1  UNL1        0.0366
      6 C          62.4326   84.6904   15.9220 C.ar    1  UNL1       -0.0002
      7 C          63.1765   83.4106   13.7868 C.3     1  UNL1        0.0917
      8 C          63.6452   83.8360    9.3315 C.3     1  UNL1        0.0900
      9 C          63.4890   83.6942   10.8166 C.1     1  UNL1       -0.0897
     10 C          63.3327   83.5524   12.3017 C.1     1  UNL1       -0.0872
     11 C          62.9438   82.0574   14.3906 C.3     1  UNL1        0.0591
     12 C          62.0444   81.0738   13.7026 C.2     1  UNL1        0.0517
     13 O          62.5765   80.2238   12.5871 O.co2   1  UNL1       -0.5491
     14 O          60.6128   80.9401   14.1301 O.co2   1  UNL1       -0.5491
     15 O          63.4822   88.2565   17.3117 O.3     1  UNL1       -0.4714
     16 C          62.9409   89.5698   16.8298 C.3     1  UNL1        0.2525
     17 C          63.2163   90.0255   15.4275 C.3     1  UNL1        0.2526
     18 C          64.4394   90.8415   15.1306 C.3     1  UNL1        0.2526
     19 O          64.7147   91.2971   13.7283 O.3     1  UNL1       -0.4684
     20 C          63.7670   90.9367   12.6229 C.ar    1  UNL1        0.1724
     21 C          64.0424   91.3924   11.2205 C.ar    1  UNL1        0.0409
     22 C          63.0947   91.0321   10.1150 C.ar    1  UNL1        0.0147
     23 C          61.8716   90.2160   10.4120 C.ar    1  UNL1        0.0609
     24 CL         60.9239   89.8556    9.3065 Cl      1  UNL1       -0.0821
     25 C          61.5962   89.7604   11.8143 C.ar    1  UNL1        0.0514
     26 C          62.5440   90.1207   12.9197 C.ar    1  UNL1        0.1732
     27 O          62.2686   89.6651   14.3220 O.3     1  UNL1       -0.4683
@<TRIPOS>UNITY_ATOM_ATTR
13 1
charge -1
@<TRIPOS>BOND
     1     8     9    1
     2     9    10    3
     3     7    10    1
     4     7    11    1
     5    11    12    1
     6    12    13   ar
     7    12    14   ar
     8     7     1    1
     9     1     2   ar
    10     2     3   ar
    11     3     4   ar
    12     4    15    1
    13    15    16    1
    14    17    16    1
    15    17    18    1
    16    18    19    1
    17    19    20    1
    18    20    21   ar
    19    21    22   ar
    20    22    23   ar
    21    23    24    1
    22    23    25   ar
    23    25    26   ar
    24    26    27    1
    25     4     5   ar
    26     5     6   ar
    27     6     1   ar
    28    27    17    1
    29    26    20   ar
