@<TRIPOS>MOLECULE
*****
 34 36 0 0 0
SMALL
GASTEIGER

@<TRIPOS>ATOM
      1 C          64.3289   83.3935   13.2583 C.ar    1  UNL1       -0.0024
      2 C          64.2714   81.9219   12.9739 C.ar    1  UNL1       -0.0026
      3 C          63.6324   81.4265   11.7104 C.ar    1  UNL1       -0.0001
      4 C          63.0509   82.4029   10.7313 C.ar    1  UNL1        0.0045
      5 C          63.1084   83.8746   11.0158 C.ar    1  UNL1        0.0534
      6 C          63.7473   84.3699   12.2793 C.ar    1  UNL1        0.0019
      7 C          62.5269   84.8510   10.0368 C.2     1  UNL1        0.2495
      8 O          63.1119   84.9721    8.6609 O.2     1  UNL1       -0.2698
      9 N          61.3603   85.7064   10.4336 N.am    1  UNL1       -0.2804
     10 H          60.9763   85.6269   11.3367 H       1  UNL1        0.1552
     11 C          60.7788   86.6827    9.4546 C.ar    1  UNL1        0.0505
     12 C          60.0214   86.1853    8.2593 C.ar    1  UNL1        0.0144
     13 C          59.4399   87.1617    7.2802 C.ar    1  UNL1       -0.0006
     14 C          59.6158   88.6355    7.4965 C.ar    1  UNL1        0.0070
     15 C          60.3732   89.1330    8.6919 C.ar    1  UNL1       -0.0006
     16 C          60.9547   88.1567    9.6709 C.ar    1  UNL1        0.0144
     17 C          59.0342   89.6119    6.5175 C.3     1  UNL1        0.1636
     18 O          59.9406   90.4775    5.6934 O.3     1  UNL1       -0.3772
     19 H          60.4155   91.0929    6.2736 H       1  UNL1        0.2109
     20 C          64.9678   83.8888   14.5219 C.3     1  UNL1        0.1166
     21 C          63.7074   86.0448   15.2382 C.2     1  UNL1        0.2462
     22 O          62.4291   85.2658   15.3334 O.2     1  UNL1       -0.2701
     23 N          64.9768   85.3563   14.8324 N.am    1  UNL1       -0.2969
     24 H          65.8158   85.8675   14.7700 H       1  UNL1        0.1501
     25 C          63.7342   90.4472   16.1699 C.ar    1  UNL1        0.1724
     26 C          63.1368   89.4776   17.1461 C.ar    1  UNL1        0.0402
     27 C          63.1279   88.0101   16.8355 C.ar    1  UNL1        0.0078
     28 C          63.7164   87.5122   15.5488 C.ar    1  UNL1        0.0566
     29 C          64.3138   88.4818   14.5726 C.ar    1  UNL1        0.0446
     30 C          64.3227   89.9493   14.8832 C.ar    1  UNL1        0.1725
     31 C          65.0355   92.6058   16.8001 C.3     1  UNL1        0.2526
     32 O          63.7432   91.9147   16.4805 O.3     1  UNL1       -0.4684
     33 O          64.9202   90.9189   13.9069 O.3     1  UNL1       -0.4684
     34 C          64.1901   91.2535   12.6401 C.3     1  UNL1        0.2526
@<TRIPOS>BOND
     1    31    32    1
     2    32    25    1
     3    25    26   ar
     4    26    27   ar
     5    27    28   ar
     6    28    21    1
     7    21    22    2
     8    21    23   am
     9    23    20    1
    10    20     1    1
    11     1     2   ar
    12     2     3   ar
    13     3     4   ar
    14     4     5   ar
    15     5     7    1
    16     7     8    2
    17     7     9   am
    18     9    11    1
    19    11    12   ar
    20    12    13   ar
    21    13    14   ar
    22    14    17    1
    23    17    18    1
    24    14    15   ar
    25    15    16   ar
    26     5     6   ar
    27    28    29   ar
    28    29    30   ar
    29    30    33    1
    30    33    34    1
    31    30    25   ar
    32     6     1   ar
    33    16    11   ar
    34    23    24    1
    35     9    10    1
    36    18    19    1
@<TRIPOS>MOLECULE
*****
 34 36 0 0 0
SMALL
GASTEIGER

@<TRIPOS>ATOM
      1 C          63.8806   86.1797   15.6064 C.ar    1  UNL1       -0.0024
      2 C          63.1827   86.1068   16.9321 C.ar    1  UNL1       -0.0026
      3 C          62.8017   87.3679   17.6495 C.ar    1  UNL1       -0.0001
      4 C          63.1186   88.7018   17.0411 C.ar    1  UNL1        0.0045
      5 C          63.8165   88.7747   15.7153 C.ar    1  UNL1        0.0534
      6 C          64.1975   87.5137   14.9980 C.ar    1  UNL1        0.0019
      7 C          64.1334   90.1087   15.1069 C.2     1  UNL1        0.2495
      8 O          63.4997   91.3527   15.6553 O.2     1  UNL1       -0.2698
      9 N          65.0841   90.1985   13.9501 N.am    1  UNL1       -0.2804
     10 H          65.5000   89.3820   13.5901 H       1  UNL1        0.1552
     11 C          65.4010   91.5325   13.3417 C.ar    1  UNL1        0.0505
     12 C          66.1911   92.5429   14.1194 C.ar    1  UNL1        0.0144
     13 C          66.5080   93.8768   13.5110 C.ar    1  UNL1       -0.0006
     14 C          66.0348   94.2004   12.1249 C.ar    1  UNL1        0.0070
     15 C          65.2447   93.1900   11.3471 C.ar    1  UNL1       -0.0006
     16 C          64.9278   91.8560   11.9555 C.ar    1  UNL1        0.0144
     17 C          66.3517   95.5343   11.5164 C.3     1  UNL1        0.1636
     18 O          65.7091   96.7770   12.0573 O.3     1  UNL1       -0.3772
     19 H          64.7539   96.7457   11.8912 H       1  UNL1        0.2109
     20 C          64.2616   84.9186   14.8890 C.3     1  UNL1        0.1166
     21 C          62.9045   84.9893   12.6747 C.2     1  UNL1        0.2462
     22 O          61.6371   85.1665   13.4571 O.2     1  UNL1       -0.2701
     23 N          64.2168   84.8654   13.3906 N.am    1  UNL1       -0.2969
     24 H          65.0486   84.7491   12.8771 H       1  UNL1        0.1501
     25 C          62.7701   84.8296    8.1795 C.ar    1  UNL1        0.1724
     26 C          63.6412   83.8729    8.9383 C.ar    1  UNL1        0.0402
     27 C          63.6861   83.9261   10.4366 C.ar    1  UNL1        0.0078
     28 C          62.8597   84.9361   11.1763 C.ar    1  UNL1        0.0566
     29 C          61.9886   85.8928   10.4175 C.ar    1  UNL1        0.0446
     30 C          61.9438   85.8396    8.9191 C.ar    1  UNL1        0.1725
     31 C          61.5415   84.1706    5.9872 C.3     1  UNL1        0.2526
     32 O          62.7253   84.7764    6.6811 O.3     1  UNL1       -0.4684
     33 O          61.0726   86.7964    8.1604 O.3     1  UNL1       -0.4684
     34 C          59.5819   86.6311    8.1809 C.3     1  UNL1        0.2526
@<TRIPOS>BOND
     1    31    32    1
     2    32    25    1
     3    25    26   ar
     4    26    27   ar
     5    27    28   ar
     6    28    21    1
     7    21    22    2
     8    21    23   am
     9    23    20    1
    10    20     1    1
    11     1     2   ar
    12     2     3   ar
    13     3     4   ar
    14     4     5   ar
    15     5     7    1
    16     7     8    2
    17     7     9   am
    18     9    11    1
    19    11    12   ar
    20    12    13   ar
    21    13    14   ar
    22    14    17    1
    23    17    18    1
    24    14    15   ar
    25    15    16   ar
    26     5     6   ar
    27    28    29   ar
    28    29    30   ar
    29    30    33    1
    30    33    34    1
    31    30    25   ar
    32     6     1   ar
    33    16    11   ar
    34    23    24    1
    35     9    10    1
    36    18    19    1
@<TRIPOS>MOLECULE
*****
 34 36 0 0 0
SMALL
GASTEIGER

@<TRIPOS>ATOM
      1 C          59.4220   89.0607    7.4152 C.ar    1  UNL1       -0.0024
      2 C          59.0858   87.5994    7.3772 C.ar    1  UNL1       -0.0026
      3 C          59.5192   86.7007    8.4973 C.ar    1  UNL1       -0.0001
      4 C          60.2889   87.2633    9.6553 C.ar    1  UNL1        0.0045
      5 C          60.6252   88.7247    9.6933 C.ar    1  UNL1        0.0534
      6 C          60.1918   89.6234    8.5733 C.ar    1  UNL1        0.0019
      7 C          61.3949   89.2873   10.8513 C.2     1  UNL1        0.2495
      8 O          60.7324   89.4418   12.1881 O.2     1  UNL1       -0.2698
      9 N          62.8272   89.6955   10.6724 N.am    1  UNL1       -0.2804
     10 H          63.2621   89.5941    9.7950 H       1  UNL1        0.1552
     11 C          63.5970   90.2581   11.8304 C.ar    1  UNL1        0.0505
     12 C          63.6861   89.4902   13.1158 C.ar    1  UNL1        0.0144
     13 C          64.4558   90.0528   14.2738 C.ar    1  UNL1       -0.0006
     14 C          65.1364   91.3834   14.1464 C.ar    1  UNL1        0.0070
     15 C          65.0473   92.1514   12.8610 C.ar    1  UNL1       -0.0006
     16 C          64.2776   91.5888   11.7030 C.ar    1  UNL1        0.0144
     17 C          65.9061   91.9460   15.3044 C.3     1  UNL1        0.1636
     18 O          65.2107   92.7985   16.3240 O.3     1  UNL1       -0.3772
     19 H          64.9161   93.6240   15.9085 H       1  UNL1        0.2109
     20 C          58.9886   89.9595    6.2952 C.3     1  UNL1        0.1166
     21 C          59.6631   91.7049    4.4928 C.2     1  UNL1        0.2462
     22 O          58.3017   92.3274    4.5862 O.2     1  UNL1       -0.2701
     23 N          60.0066   90.5209    5.3473 N.am    1  UNL1       -0.2969
     24 H          60.9002   90.1122    5.2860 H       1  UNL1        0.1501
     25 C          62.7171   93.3891    1.6491 C.ar    1  UNL1        0.1724
     26 C          63.0973   92.2845    2.5901 C.ar    1  UNL1        0.0402
     27 C          62.0793   91.7231    3.5380 C.ar    1  UNL1        0.0078
     28 C          60.6811   92.2663    3.5449 C.ar    1  UNL1        0.0566
     29 C          60.3010   93.3708    2.6040 C.ar    1  UNL1        0.0446
     30 C          61.3190   93.9322    1.6561 C.ar    1  UNL1        0.1725
     31 C          65.1620   93.4941    0.7765 C.3     1  UNL1        0.2526
     32 O          63.7351   93.9505    0.7012 O.3     1  UNL1       -0.4684
     33 O          60.9387   95.0368    0.7151 O.3     1  UNL1       -0.4684
     34 C          59.4971   95.2636    0.3683 C.3     1  UNL1        0.2526
@<TRIPOS>BOND
     1    31    32    1
     2    32    25    1
     3    25    26   ar
     4    26    27   ar
     5    27    28   ar
     6    28    21    1
     7    21    22    2
     8    21    23   am
     9    23    20    1
    10    20     1    1
    11     1     2   ar
    12     2     3   ar
    13     3     4   ar
    14     4     5   ar
    15     5     7    1
    16     7     8    2
    17     7     9   am
    18     9    11    1
    19    11    12   ar
    20    12    13   ar
    21    13    14   ar
    22    14    17    1
    23    17    18    1
    24    14    15   ar
    25    15    16   ar
    26     5     6   ar
    27    28    29   ar
    28    29    30   ar
    29    30    33    1
    30    33    34    1
    31    30    25   ar
    32     6     1   ar
    33    16    11   ar
    34    23    24    1
    35     9    10    1
    36    18    19    1
@<TRIPOS>MOLECULE
*****
 34 36 0 0 0
SMALL
GASTEIGER

@<TRIPOS>ATOM
      1 C          60.9096   89.5160    9.8396 C.ar    1  UNL1       -0.0024
      2 C          60.1427   89.4359    8.5530 C.ar    1  UNL1       -0.0026
      3 C          59.9917   88.1190    7.8507 C.ar    1  UNL1       -0.0001
      4 C          60.6076   86.8824    8.4350 C.ar    1  UNL1        0.0045
      5 C          61.3744   86.9626    9.7217 C.ar    1  UNL1        0.0534
      6 C          61.5254   88.2794   10.4240 C.ar    1  UNL1        0.0019
      7 C          61.9903   85.7260   10.3061 C.2     1  UNL1        0.2495
      8 O          62.7517   84.7795    9.4260 O.2     1  UNL1       -0.2698
      9 N          61.8448   85.4358   11.7706 N.am    1  UNL1       -0.2804
     10 H          61.3451   86.0570   12.3482 H       1  UNL1        0.1552
     11 C          62.4606   84.1992   12.3549 C.ar    1  UNL1        0.0505
     12 C          62.4255   82.9100   11.5889 C.ar    1  UNL1        0.0144
     13 C          63.0414   81.6734   12.1733 C.ar    1  UNL1       -0.0006
     14 C          63.6923   81.7259   13.5236 C.ar    1  UNL1        0.0070
     15 C          63.7275   83.0151   14.2897 C.ar    1  UNL1       -0.0006
     16 C          63.1116   84.2517   13.7053 C.ar    1  UNL1        0.0144
     17 C          64.3082   80.4893   14.1080 C.3     1  UNL1        0.1636
     18 O          63.4425   79.3183   14.4674 O.3     1  UNL1       -0.3772
     19 H          62.8512   79.5648   15.1957 H       1  UNL1        0.2109
     20 C          61.0606   90.8328   10.5420 C.3     1  UNL1        0.1166
     21 C          62.9856   90.8293   12.2868 C.2     1  UNL1        0.2462
     22 O          62.1963   89.8955   13.1557 O.2     1  UNL1       -0.2701
     23 N          62.4178   91.2979   10.9799 N.am    1  UNL1       -0.2969
     24 H          62.9358   91.9108   10.4096 H       1  UNL1        0.1501
     25 C          67.0572   92.2246   13.6005 C.ar    1  UNL1        0.1724
     26 C          66.2844   91.2602   14.4507 C.ar    1  UNL1        0.0402
     27 C          64.9272   90.7952   14.0128 C.ar    1  UNL1        0.0078
     28 C          64.3428   91.2944   12.7247 C.ar    1  UNL1        0.0566
     29 C          65.1156   92.2587   11.8745 C.ar    1  UNL1        0.0446
     30 C          66.4728   92.7238   12.3124 C.ar    1  UNL1        0.1725
     31 C          68.6410   93.1074   15.4611 C.3     1  UNL1        0.2526
     32 O          68.4143   92.6896   14.0385 O.3     1  UNL1       -0.4684
     33 O          67.2456   93.6881   11.4622 O.3     1  UNL1       -0.4684
     34 C          66.5602   94.8861   10.8748 C.3     1  UNL1        0.2526
@<TRIPOS>BOND
     1    31    32    1
     2    32    25    1
     3    25    26   ar
     4    26    27   ar
     5    27    28   ar
     6    28    21    1
     7    21    22    2
     8    21    23   am
     9    23    20    1
    10    20     1    1
    11     1     2   ar
    12     2     3   ar
    13     3     4   ar
    14     4     5   ar
    15     5     7    1
    16     7     8    2
    17     7     9   am
    18     9    11    1
    19    11    12   ar
    20    12    13   ar
    21    13    14   ar
    22    14    17    1
    23    17    18    1
    24    14    15   ar
    25    15    16   ar
    26     5     6   ar
    27    28    29   ar
    28    29    30   ar
    29    30    33    1
    30    33    34    1
    31    30    25   ar
    32     6     1   ar
    33    16    11   ar
    34    23    24    1
    35     9    10    1
    36    18    19    1
@<TRIPOS>MOLECULE
*****
 34 36 0 0 0
SMALL
GASTEIGER

@<TRIPOS>ATOM
      1 C          61.6130   88.5098    9.6752 C.ar    1  UNL1       -0.0024
      2 C          60.2517   89.1355    9.7481 C.ar    1  UNL1       -0.0026
      3 C          60.0504   90.4055   10.5207 C.ar    1  UNL1       -0.0001
      4 C          61.2105   91.0496   11.2203 C.ar    1  UNL1        0.0045
      5 C          62.5718   90.4238   11.1473 C.ar    1  UNL1        0.0534
      6 C          62.7730   89.1540   10.3747 C.ar    1  UNL1        0.0019
      7 C          63.7318   91.0680   11.8469 C.2     1  UNL1        0.2495
      8 O          64.5431   92.1162   11.1447 O.2     1  UNL1       -0.2698
      9 N          64.0806   90.6638   13.2487 N.am    1  UNL1       -0.2804
     10 H          63.5482   89.9759   13.7096 H       1  UNL1        0.1552
     11 C          65.2407   91.3080   13.9483 C.ar    1  UNL1        0.0505
     12 C          66.5415   91.4967   13.2257 C.ar    1  UNL1        0.0144
     13 C          67.7015   92.1408   13.9252 C.ar    1  UNL1       -0.0006
     14 C          67.5607   92.5963   15.3474 C.ar    1  UNL1        0.0070
     15 C          66.2599   92.4076   16.0702 C.ar    1  UNL1       -0.0006
     16 C          65.0998   91.7634   15.3706 C.ar    1  UNL1        0.0144
     17 C          68.7208   93.2404   16.0470 C.3     1  UNL1        0.1636
     18 O          68.8214   94.7356   16.1116 O.3     1  UNL1       -0.3772
     19 H          68.9537   95.0896   15.2182 H       1  UNL1        0.2109
     20 C          61.8143   87.2399    8.9026 C.3     1  UNL1        0.1166
     21 C          61.9017   85.7212   11.0087 C.2     1  UNL1        0.2462
     22 O          60.9758   86.6599   11.7239 O.2     1  UNL1       -0.2701
     23 N          62.3209   86.0112    9.5980 N.am    1  UNL1       -0.2969
     24 H          62.9286   85.3951    9.1286 H       1  UNL1        0.1501
     25 C          63.4216   82.0352   13.0951 C.ar    1  UNL1        0.1724
     26 C          63.4187   82.1014   11.5966 C.ar    1  UNL1        0.0402
     27 C          62.9121   83.3301   10.9012 C.ar    1  UNL1        0.0078
     28 C          62.4083   84.4925   11.7042 C.ar    1  UNL1        0.0566
     29 C          62.4112   84.4263   13.2027 C.ar    1  UNL1        0.0446
     30 C          62.9179   83.1977   13.8982 C.ar    1  UNL1        0.1725
     31 C          63.0435   79.6030   13.9265 C.3     1  UNL1        0.2526
     32 O          63.9283   80.8065   13.7906 O.3     1  UNL1       -0.4684
     33 O          62.9208   83.1315   15.3968 O.3     1  UNL1       -0.4684
     34 C          62.7142   84.3794   16.2030 C.3     1  UNL1        0.2526
@<TRIPOS>BOND
     1    31    32    1
     2    32    25    1
     3    25    26   ar
     4    26    27   ar
     5    27    28   ar
     6    28    21    1
     7    21    22    2
     8    21    23   am
     9    23    20    1
    10    20     1    1
    11     1     2   ar
    12     2     3   ar
    13     3     4   ar
    14     4     5   ar
    15     5     7    1
    16     7     8    2
    17     7     9   am
    18     9    11    1
    19    11    12   ar
    20    12    13   ar
    21    13    14   ar
    22    14    17    1
    23    17    18    1
    24    14    15   ar
    25    15    16   ar
    26     5     6   ar
    27    28    29   ar
    28    29    30   ar
    29    30    33    1
    30    33    34    1
    31    30    25   ar
    32     6     1   ar
    33    16    11   ar
    34    23    24    1
    35     9    10    1
    36    18    19    1
@<TRIPOS>MOLECULE
*****
 34 36 0 0 0
SMALL
GASTEIGER

@<TRIPOS>ATOM
      1 C          60.2226   88.7539    9.9283 C.ar    1  UNL1       -0.0024
      2 C          59.8574   87.3067    9.7799 C.ar    1  UNL1       -0.0026
      3 C          59.4436   86.7709    8.4413 C.ar    1  UNL1       -0.0001
      4 C          59.3950   87.6825    7.2511 C.ar    1  UNL1        0.0045
      5 C          59.7602   89.1299    7.3995 C.ar    1  UNL1        0.0534
      6 C          60.1740   89.6655    8.7380 C.ar    1  UNL1        0.0019
      7 C          59.7116   90.0415    6.2093 C.2     1  UNL1        0.2495
      8 O          58.3910   90.4153    5.6043 O.2     1  UNL1       -0.2698
      9 N          60.9838   90.5792    5.6240 N.am    1  UNL1       -0.2804
     10 H          61.8506   90.3339    6.0210 H       1  UNL1        0.1552
     11 C          60.9352   91.4908    4.4338 C.ar    1  UNL1        0.0505
     12 C          62.1041   91.5636    3.4966 C.ar    1  UNL1        0.0144
     13 C          62.0555   92.4752    2.3064 C.ar    1  UNL1       -0.0006
     14 C          60.8380   93.3140    2.0533 C.ar    1  UNL1        0.0070
     15 C          59.6691   93.2413    2.9906 C.ar    1  UNL1       -0.0006
     16 C          59.7176   92.3297    4.1808 C.ar    1  UNL1        0.0144
     17 C          60.7894   94.2256    0.8631 C.3     1  UNL1        0.1636
     18 O          61.8189   95.3046    0.7023 O.3     1  UNL1       -0.3772
     19 H          61.7159   95.9582    1.4116 H       1  UNL1        0.2109
     20 C          60.6365   89.2896   11.2669 C.3     1  UNL1        0.1166
     21 C          62.5320   90.1575   12.8173 C.2     1  UNL1        0.2462
     22 O          61.7178   89.7853   14.0209 O.2     1  UNL1       -0.2701
     23 N          61.9913   89.9096   11.4403 N.am    1  UNL1       -0.2969
     24 H          62.5257   90.1538   10.6503 H       1  UNL1        0.1501
     25 C          66.5964   92.0174   13.3376 C.ar    1  UNL1        0.1724
     26 C          66.0838   91.0392   14.3527 C.ar    1  UNL1        0.0402
     27 C          64.7289   90.4192   14.1792 C.ar    1  UNL1        0.0078
     28 C          63.8868   90.7774   12.9908 C.ar    1  UNL1        0.0566
     29 C          64.3995   91.7556   11.9758 C.ar    1  UNL1        0.0446
     30 C          65.7543   92.3756   12.1492 C.ar    1  UNL1        0.1725
     31 C          68.4864   92.8974   14.8880 C.3     1  UNL1        0.2526
     32 O          67.9513   92.6374   13.5111 O.3     1  UNL1       -0.4684
     33 O          66.2670   93.3538   11.1341 O.3     1  UNL1       -0.4684
     34 C          67.2634   92.9123   10.1035 C.3     1  UNL1        0.2526
@<TRIPOS>BOND
     1    31    32    1
     2    32    25    1
     3    25    26   ar
     4    26    27   ar
     5    27    28   ar
     6    28    21    1
     7    21    22    2
     8    21    23   am
     9    23    20    1
    10    20     1    1
    11     1     2   ar
    12     2     3   ar
    13     3     4   ar
    14     4     5   ar
    15     5     7    1
    16     7     8    2
    17     7     9   am
    18     9    11    1
    19    11    12   ar
    20    12    13   ar
    21    13    14   ar
    22    14    17    1
    23    17    18    1
    24    14    15   ar
    25    15    16   ar
    26     5     6   ar
    27    28    29   ar
    28    29    30   ar
    29    30    33    1
    30    33    34    1
    31    30    25   ar
    32     6     1   ar
    33    16    11   ar
    34    23    24    1
    35     9    10    1
    36    18    19    1
@<TRIPOS>MOLECULE
*****
 34 36 0 0 0
SMALL
GASTEIGER

@<TRIPOS>ATOM
      1 C          59.9779   89.1960    8.5342 C.ar    1  UNL1       -0.0024
      2 C          60.1048   90.3659    9.4643 C.ar    1  UNL1       -0.0026
      3 C          60.7074   90.1801   10.8254 C.ar    1  UNL1       -0.0001
      4 C          61.1831   88.8243   11.2562 C.ar    1  UNL1        0.0045
      5 C          61.0562   87.6544   10.3260 C.ar    1  UNL1        0.0534
      6 C          60.4536   87.8403    8.9650 C.ar    1  UNL1        0.0019
      7 C          61.5318   86.2986   10.7569 C.2     1  UNL1        0.2495
      8 O          61.3358   85.1143    9.8575 O.2     1  UNL1       -0.2698
      9 N          62.2036   86.1273   12.0871 N.am    1  UNL1       -0.2804
     10 H          62.3322   86.9046   12.6774 H       1  UNL1        0.1552
     11 C          62.6792   84.7715   12.5180 C.ar    1  UNL1        0.0505
     12 C          62.3734   84.2734   13.8994 C.ar    1  UNL1        0.0144
     13 C          62.8491   82.9176   14.3302 C.ar    1  UNL1       -0.0006
     14 C          63.6306   82.0600   13.3797 C.ar    1  UNL1        0.0070
     15 C          63.9364   82.5580   11.9982 C.ar    1  UNL1       -0.0006
     16 C          63.4608   83.9138   11.5673 C.ar    1  UNL1        0.0144
     17 C          64.1063   80.7042   13.8105 C.3     1  UNL1        0.1636
     18 O          63.1653   79.7650   14.5051 O.3     1  UNL1       -0.3772
     19 H          62.9200   80.1329   15.3685 H       1  UNL1        0.2109
     20 C          59.3753   89.3818    7.1731 C.3     1  UNL1        0.1166
     21 C          59.4927   91.0801    5.2104 C.2     1  UNL1        0.2462
     22 O          58.0425   91.4085    5.4079 O.2     1  UNL1       -0.2701
     23 N          60.1591   90.0668    6.0931 N.am    1  UNL1       -0.2969
     24 H          61.1109   89.8512    5.9635 H       1  UNL1        0.1501
     25 C          61.8440   93.1348    1.9702 C.ar    1  UNL1        0.1724
     26 C          62.5067   92.1110    2.8434 C.ar    1  UNL1        0.0402
     27 C          61.7229   91.4261    3.9235 C.ar    1  UNL1        0.0078
     28 C          60.2765   91.7650    4.1304 C.ar    1  UNL1        0.0566
     29 C          59.6138   92.7889    3.2572 C.ar    1  UNL1        0.0446
     30 C          60.3976   93.4738    2.1771 C.ar    1  UNL1        0.1725
     31 C          64.1202   93.6768    0.8409 C.3     1  UNL1        0.2526
     32 O          62.6278   93.8197    0.8901 O.3     1  UNL1       -0.4684
     33 O          59.7348   94.4977    1.3038 O.3     1  UNL1       -0.4684
     34 C          58.9726   94.0650    0.0866 C.3     1  UNL1        0.2526
@<TRIPOS>BOND
     1    31    32    1
     2    32    25    1
     3    25    26   ar
     4    26    27   ar
     5    27    28   ar
     6    28    21    1
     7    21    22    2
     8    21    23   am
     9    23    20    1
    10    20     1    1
    11     1     2   ar
    12     2     3   ar
    13     3     4   ar
    14     4     5   ar
    15     5     7    1
    16     7     8    2
    17     7     9   am
    18     9    11    1
    19    11    12   ar
    20    12    13   ar
    21    13    14   ar
    22    14    17    1
    23    17    18    1
    24    14    15   ar
    25    15    16   ar
    26     5     6   ar
    27    28    29   ar
    28    29    30   ar
    29    30    33    1
    30    33    34    1
    31    30    25   ar
    32     6     1   ar
    33    16    11   ar
    34    23    24    1
    35     9    10    1
    36    18    19    1
@<TRIPOS>MOLECULE
*****
 34 36 0 0 0
SMALL
GASTEIGER

@<TRIPOS>ATOM
      1 C          63.8805   83.3421   11.5293 C.ar    1  UNL1       -0.0024
      2 C          63.8126   82.0364   12.2645 C.ar    1  UNL1       -0.0026
      3 C          63.8499   82.0171   13.7640 C.ar    1  UNL1       -0.0001
      4 C          63.9552   83.3036   14.5282 C.ar    1  UNL1        0.0045
      5 C          64.0231   84.6093   13.7929 C.ar    1  UNL1        0.0534
      6 C          63.9858   84.6285   12.2935 C.ar    1  UNL1        0.0019
      7 C          64.1284   85.8957   14.5571 C.2     1  UNL1        0.2495
      8 O          64.5132   85.8776   16.0067 O.2     1  UNL1       -0.2698
      9 N          63.8489   87.2004   13.8715 N.am    1  UNL1       -0.2804
     10 H          63.5963   87.2123   12.9200 H       1  UNL1        0.1552
     11 C          63.9542   88.4868   14.6357 C.ar    1  UNL1        0.0505
     12 C          63.2847   88.6228   15.9711 C.ar    1  UNL1        0.0144
     13 C          63.3900   89.9093   16.7352 C.ar    1  UNL1       -0.0006
     14 C          64.1647   91.0597   16.1640 C.ar    1  UNL1        0.0070
     15 C          64.8342   90.9237   14.8286 C.ar    1  UNL1       -0.0006
     16 C          64.7289   89.6373   14.0644 C.ar    1  UNL1        0.0144
     17 C          64.2700   92.3462   16.9282 C.3     1  UNL1        0.1636
     18 O          65.5835   93.0660   17.0076 O.3     1  UNL1       -0.3772
     19 H          66.2173   92.5280   17.5074 H       1  UNL1        0.2109
     20 C          63.8432   83.3613   10.0299 C.3     1  UNL1        0.1166
     21 C          61.9704   85.1620   10.0109 C.2     1  UNL1        0.2462
     22 O          61.6202   84.8126   11.4269 O.2     1  UNL1       -0.2701
     23 N          63.0819   84.4364    9.3124 N.am    1  UNL1       -0.2969
     24 H          63.3118   84.6657    8.3829 H       1  UNL1        0.1501
     25 C          59.6867   88.3871    7.8584 C.ar    1  UNL1        0.1724
     26 C          59.7366   86.9987    7.2930 C.ar    1  UNL1        0.0402
     27 C          60.4979   85.9236    8.0105 C.ar    1  UNL1        0.0078
     28 C          61.2092   86.2370    9.2934 C.ar    1  UNL1        0.0566
     29 C          61.1592   87.6255    9.8588 C.ar    1  UNL1        0.0446
     30 C          60.3980   88.7005    9.1413 C.ar    1  UNL1        0.1725
     31 C          59.4563   90.0277    5.8571 C.3     1  UNL1        0.2526
     32 O          58.9254   89.4621    7.1409 O.3     1  UNL1       -0.4684
     33 O          60.3480   90.0890    9.7067 O.3     1  UNL1       -0.4684
     34 C          59.7946   90.3194   11.0817 C.3     1  UNL1        0.2526
@<TRIPOS>BOND
     1    31    32    1
     2    32    25    1
     3    25    26   ar
     4    26    27   ar
     5    27    28   ar
     6    28    21    1
     7    21    22    2
     8    21    23   am
     9    23    20    1
    10    20     1    1
    11     1     2   ar
    12     2     3   ar
    13     3     4   ar
    14     4     5   ar
    15     5     7    1
    16     7     8    2
    17     7     9   am
    18     9    11    1
    19    11    12   ar
    20    12    13   ar
    21    13    14   ar
    22    14    17    1
    23    17    18    1
    24    14    15   ar
    25    15    16   ar
    26     5     6   ar
    27    28    29   ar
    28    29    30   ar
    29    30    33    1
    30    33    34    1
    31    30    25   ar
    32     6     1   ar
    33    16    11   ar
    34    23    24    1
    35     9    10    1
    36    18    19    1
@<TRIPOS>MOLECULE
*****
 34 36 0 0 0
SMALL
GASTEIGER

@<TRIPOS>ATOM
      1 C          60.3087   92.2183    3.3353 C.ar    1  UNL1       -0.0024
      2 C          61.8018   92.0753    3.3331 C.ar    1  UNL1       -0.0026
      3 C          62.5779   92.3305    2.0751 C.ar    1  UNL1       -0.0001
      4 C          61.8608   92.7288    0.8192 C.ar    1  UNL1        0.0045
      5 C          60.3676   92.8719    0.8215 C.ar    1  UNL1        0.0534
      6 C          59.5915   92.6166    2.0795 C.ar    1  UNL1        0.0019
      7 C          59.6504   93.2702   -0.4344 C.2     1  UNL1        0.2495
      8 O          60.2202   94.3420   -1.3156 O.2     1  UNL1       -0.2698
      9 N          58.3635   92.5966   -0.8090 N.am    1  UNL1       -0.2804
     10 H          57.9896   91.8931   -0.2306 H       1  UNL1        0.1552
     11 C          57.6464   92.9949   -2.0648 C.ar    1  UNL1        0.0505
     12 C          56.6289   94.0964   -2.0302 C.ar    1  UNL1        0.0144
     13 C          55.9118   94.4947   -3.2861 C.ar    1  UNL1       -0.0006
     14 C          56.2122   93.7915   -4.5765 C.ar    1  UNL1        0.0070
     15 C          57.2297   92.6898   -4.6111 C.ar    1  UNL1       -0.0006
     16 C          57.9468   92.2915   -3.3552 C.ar    1  UNL1        0.0144
     17 C          55.4951   94.1898   -5.8323 C.3     1  UNL1        0.1636
     18 O          54.2889   95.0783   -5.7575 O.3     1  UNL1       -0.3772
     19 H          53.5711   94.6113   -5.3019 H       1  UNL1        0.2109
     20 C          59.5326   91.9631    4.5933 C.3     1  UNL1        0.1166
     21 C          59.0287   90.0392    6.2651 C.2     1  UNL1        0.2462
     22 O          57.5634   90.1681    5.9716 O.2     1  UNL1       -0.2701
     23 N          60.0133   90.9367    5.5759 N.am    1  UNL1       -0.2969
     24 H          60.9751   90.8522    5.7685 H       1  UNL1        0.1501
     25 C          60.4709   86.9601    9.2128 C.ar    1  UNL1        0.1724
     26 C          59.7521   86.5287    7.9689 C.ar    1  UNL1        0.0402
     27 C          59.2714   87.5551    6.9863 C.ar    1  UNL1        0.0078
     28 C          59.5094   89.0128    7.2476 C.ar    1  UNL1        0.0566
     29 C          60.2282   89.4442    8.4915 C.ar    1  UNL1        0.0446
     30 C          60.7089   88.4178    9.4741 C.ar    1  UNL1        0.1725
     31 C          62.3875   85.5000   10.1847 C.3     1  UNL1        0.2526
     32 O          60.9516   85.9337   10.1953 O.3     1  UNL1       -0.4684
     33 O          61.4277   88.8492   10.7180 O.3     1  UNL1       -0.4684
     34 C          60.9735   90.0703   11.4614 C.3     1  UNL1        0.2526
@<TRIPOS>BOND
     1    31    32    1
     2    32    25    1
     3    25    26   ar
     4    26    27   ar
     5    27    28   ar
     6    28    21    1
     7    21    22    2
     8    21    23   am
     9    23    20    1
    10    20     1    1
    11     1     2   ar
    12     2     3   ar
    13     3     4   ar
    14     4     5   ar
    15     5     7    1
    16     7     8    2
    17     7     9   am
    18     9    11    1
    19    11    12   ar
    20    12    13   ar
    21    13    14   ar
    22    14    17    1
    23    17    18    1
    24    14    15   ar
    25    15    16   ar
    26     5     6   ar
    27    28    29   ar
    28    29    30   ar
    29    30    33    1
    30    33    34    1
    31    30    25   ar
    32     6     1   ar
    33    16    11   ar
    34    23    24    1
    35     9    10    1
    36    18    19    1
