@<TRIPOS>MOLECULE
*****
 21 23 0 0 0
SMALL
GASTEIGER

@<TRIPOS>ATOM
      1 C          64.9950   91.8142   12.8902 C.ar    1  UNL1       -0.0153
      2 C          65.3172   92.8778   11.8828 C.ar    1  UNL1        0.0050
      3 S          64.5793   92.5561   10.6171 S.2     1  UNL1       -0.0915
      4 C          63.8011   91.2937   10.8423 C.ar    1  UNL1        0.0288
      5 C          62.8917   90.5025    9.9496 C.ar    1  UNL1        0.0065
      6 C          62.2392   89.2527   10.4618 C.ar    1  UNL1        0.0005
      7 C          62.4962   88.7942   11.8667 C.ar    1  UNL1        0.0000
      8 C          63.4056   89.5854   12.7594 C.ar    1  UNL1        0.0002
      9 C          64.0580   90.8351   12.2472 C.ar    1  UNL1        0.0025
     10 C          64.6441   91.2162   15.3941 C.3     1  UNL1        0.0100
     11 C          65.5181   91.7422   14.2942 C.3     1  UNL1        0.0524
     12 C          66.9149   92.1962   14.5985 C.ar    1  UNL1        0.0316
     13 C          68.1456   91.8481   13.8148 C.ar    1  UNL1        0.1020
     14 N          69.3176   92.5148   14.4718 N.ar    1  UNL1       -0.2351
     15 C          68.8114   93.2750   15.6617 C.ar    1  UNL1        0.1342
     16 S          67.3263   93.0781   15.7400 S.2     1  UNL1       -0.0685
     17 C          66.2190   94.0562   12.1024 C.3     1  UNL1        0.0499
     18 C          66.0858   95.2741   11.2371 C.3     1  UNL1        0.0774
     19 N          67.0188   95.4781   10.0805 N.3     1  UNL1       -0.2700
     20 C          67.7403   94.3064    9.4832 C.3     1  UNL1        0.0897
     21 C          67.2304   96.8537    9.5211 C.3     1  UNL1        0.0897
@<TRIPOS>BOND
     1    11    10    1
     2    11    12    1
     3    12    13   ar
     4    13    14   ar
     5    14    15   ar
     6    15    16   ar
     7    11     1    1
     8     1     2   ar
     9     2    17    1
    10    17    18    1
    11    18    19    1
    12    19    20    1
    13    19    21    1
    14     2     3   ar
    15     3     4   ar
    16     4     5   ar
    17     5     6   ar
    18     6     7   ar
    19     7     8   ar
    20     8     9   ar
    21    16    12   ar
    22     9     1   ar
    23     9     4   ar
@<TRIPOS>MOLECULE
*****
 21 23 0 0 0
SMALL
GASTEIGER

@<TRIPOS>ATOM
      1 C          66.1134   92.4436   11.8718 C.ar    1  UNL1       -0.0153
      2 C          64.7703   91.7802   11.7937 C.ar    1  UNL1        0.0050
      3 S          64.3118   91.4957   13.1932 S.2     1  UNL1       -0.0915
      4 C          65.3714   91.9833   14.1364 C.ar    1  UNL1        0.0288
      5 C          65.4662   91.9695   15.6333 C.ar    1  UNL1        0.0065
      6 C          66.6745   92.5416   16.3135 C.ar    1  UNL1        0.0005
      7 C          67.7880   93.1274   15.4968 C.ar    1  UNL1        0.0000
      8 C          67.6932   93.1412   13.9999 C.ar    1  UNL1        0.0002
      9 C          66.4849   92.5691   13.3197 C.ar    1  UNL1        0.0025
     10 C          67.8884   91.9492   10.0401 C.3     1  UNL1        0.0100
     11 C          66.9399   92.9012   10.7067 C.3     1  UNL1        0.0524
     12 C          66.8179   94.3105   10.2080 C.ar    1  UNL1        0.0316
     13 C          67.4058   94.8505    8.9381 C.ar    1  UNL1        0.1020
     14 N          67.0379   96.3011    8.8370 N.ar    1  UNL1       -0.2351
     15 C          66.2225   96.6578   10.0444 C.ar    1  UNL1        0.1342
     16 S          66.0865   95.4275   10.8918 S.2     1  UNL1       -0.0685
     17 C          64.0179   91.4579   10.5367 C.3     1  UNL1        0.0499
     18 C          62.5571   91.1239   10.6017 C.3     1  UNL1        0.0774
     19 N          62.1105   89.6940   10.5247 N.3     1  UNL1       -0.2700
     20 C          61.1071   89.2763    9.4907 C.3     1  UNL1        0.0897
     21 C          62.6672   88.6817   11.4814 C.3     1  UNL1        0.0897
@<TRIPOS>BOND
     1    11    10    1
     2    11    12    1
     3    12    13   ar
     4    13    14   ar
     5    14    15   ar
     6    15    16   ar
     7    11     1    1
     8     1     2   ar
     9     2    17    1
    10    17    18    1
    11    18    19    1
    12    19    20    1
    13    19    21    1
    14     2     3   ar
    15     3     4   ar
    16     4     5   ar
    17     5     6   ar
    18     6     7   ar
    19     7     8   ar
    20     8     9   ar
    21    16    12   ar
    22     9     1   ar
    23     9     4   ar
@<TRIPOS>MOLECULE
*****
 21 23 0 0 0
SMALL
GASTEIGER

@<TRIPOS>ATOM
      1 C          63.8998   89.4402   13.5821 C.ar    1  UNL1       -0.0153
      2 C          63.9676   87.9651   13.8457 C.ar    1  UNL1        0.0050
      3 S          63.2953   87.2592   12.7056 S.2     1  UNL1       -0.0915
      4 C          62.8121   88.2980   11.7374 C.ar    1  UNL1        0.0288
      5 C          62.0802   88.1906   10.4325 C.ar    1  UNL1        0.0065
      6 C          61.7219   89.4313    9.6694 C.ar    1  UNL1        0.0005
      7 C          62.0955   90.7792   10.2111 C.ar    1  UNL1        0.0000
      8 C          62.8274   90.8866   11.5160 C.ar    1  UNL1        0.0002
      9 C          63.1857   89.6459   12.2791 C.ar    1  UNL1        0.0025
     10 C          63.7947   90.8174   15.7827 C.3     1  UNL1        0.0100
     11 C          64.4496   90.5200   14.4663 C.3     1  UNL1        0.0524
     12 C          65.6541   91.3024   14.0342 C.ar    1  UNL1        0.0316
     13 C          65.7326   92.2166   12.8476 C.ar    1  UNL1        0.1020
     14 N          67.1187   92.7872   12.7929 N.ar    1  UNL1       -0.2351
     15 C          67.8969   92.2258   13.9457 C.ar    1  UNL1        0.1342
     16 S          66.9918   91.3081   14.7129 S.2     1  UNL1       -0.0685
     17 C          64.5970   87.3108   15.0397 C.3     1  UNL1        0.0499
     18 C          64.3457   85.8585   15.3186 C.3     1  UNL1        0.0774
     19 N          63.0893   85.4361   16.0207 N.3     1  UNL1       -0.2700
     20 C          62.6508   86.1476   17.2664 C.3     1  UNL1        0.0897
     21 C          62.2713   84.3023   15.4772 C.3     1  UNL1        0.0897
@<TRIPOS>BOND
     1    11    10    1
     2    11    12    1
     3    12    13   ar
     4    13    14   ar
     5    14    15   ar
     6    15    16   ar
     7    11     1    1
     8     1     2   ar
     9     2    17    1
    10    17    18    1
    11    18    19    1
    12    19    20    1
    13    19    21    1
    14     2     3   ar
    15     3     4   ar
    16     4     5   ar
    17     5     6   ar
    18     6     7   ar
    19     7     8   ar
    20     8     9   ar
    21    16    12   ar
    22     9     1   ar
    23     9     4   ar
@<TRIPOS>MOLECULE
*****
 21 23 0 0 0
SMALL
GASTEIGER

@<TRIPOS>ATOM
      1 C          63.4560   85.6102   13.0678 C.ar    1  UNL1       -0.0153
      2 C          62.9669   84.4378   12.2702 C.ar    1  UNL1        0.0050
      3 S          62.3102   84.9636   11.0283 S.2     1  UNL1       -0.0915
      4 C          62.3934   86.4610   11.0584 C.ar    1  UNL1        0.0288
      5 C          61.9158   87.5122   10.1009 C.ar    1  UNL1        0.0065
      6 C          62.1464   88.9630   10.4039 C.ar    1  UNL1        0.0005
      7 C          62.8546   89.3627   11.6644 C.ar    1  UNL1        0.0000
      8 C          63.3321   88.3115   12.6219 C.ar    1  UNL1        0.0002
      9 C          63.1015   86.8606   12.3189 C.ar    1  UNL1        0.0025
     10 C          65.5871   85.0453   14.4425 C.3     1  UNL1        0.0100
     11 C          64.1735   85.5439   14.3834 C.3     1  UNL1        0.0524
     12 C          63.4777   85.9761   15.6399 C.ar    1  UNL1        0.0316
     13 C          62.5629   85.1315   16.4764 C.ar    1  UNL1        0.1020
     14 N          62.0943   85.9623   17.6340 N.ar    1  UNL1       -0.2351
     15 C          62.7194   87.3204   17.5130 C.ar    1  UNL1        0.1342
     16 S          63.5744   87.3290   16.2805 S.2     1  UNL1       -0.0685
     17 C          63.1095   82.9932   12.6481 C.3     1  UNL1        0.0499
     18 C          62.2579   82.4159   13.7396 C.3     1  UNL1        0.0774
     19 N          61.7273   81.0182   13.6170 N.3     1  UNL1       -0.2700
     20 C          60.3695   80.6813   14.1583 C.3     1  UNL1        0.0897
     21 C          62.5543   79.9575   12.9531 C.3     1  UNL1        0.0897
@<TRIPOS>BOND
     1    11    10    1
     2    11    12    1
     3    12    13   ar
     4    13    14   ar
     5    14    15   ar
     6    15    16   ar
     7    11     1    1
     8     1     2   ar
     9     2    17    1
    10    17    18    1
    11    18    19    1
    12    19    20    1
    13    19    21    1
    14     2     3   ar
    15     3     4   ar
    16     4     5   ar
    17     5     6   ar
    18     6     7   ar
    19     7     8   ar
    20     8     9   ar
    21    16    12   ar
    22     9     1   ar
    23     9     4   ar
@<TRIPOS>MOLECULE
*****
 21 23 0 0 0
SMALL
GASTEIGER

@<TRIPOS>ATOM
      1 C          61.4549   88.2031   10.8294 C.ar    1  UNL1       -0.0153
      2 C          62.1919   86.9536   11.2109 C.ar    1  UNL1        0.0050
      3 S          61.9138   85.9141   10.1658 S.2     1  UNL1       -0.0915
      4 C          61.0049   86.5212    9.1385 C.ar    1  UNL1        0.0288
      5 C          60.3988   85.9687    7.8826 C.ar    1  UNL1        0.0065
      6 C          59.5092   86.8308    7.0368 C.ar    1  UNL1        0.0005
      7 C          59.2256   88.2454    7.4470 C.ar    1  UNL1        0.0000
      8 C          59.8316   88.7980    8.7029 C.ar    1  UNL1        0.0002
      9 C          60.7212   87.9359    9.5487 C.ar    1  UNL1        0.0025
     10 C          60.2457   89.8885   12.3939 C.3     1  UNL1        0.0100
     11 C          61.4519   89.4933   11.5945 C.3     1  UNL1        0.0524
     12 C          62.6551   90.3883   11.5603 C.ar    1  UNL1        0.0316
     13 C          63.1598   91.1418   10.3655 C.ar    1  UNL1        0.1020
     14 N          64.3815   91.9062   10.7816 N.ar    1  UNL1       -0.2351
     15 C          64.6318   91.6252   12.2336 C.ar    1  UNL1        0.1342
     16 S          63.5649   90.6871   12.7149 S.2     1  UNL1       -0.0685
     17 C          63.0554   86.7748   12.4243 C.3     1  UNL1        0.0499
     18 C          63.3198   85.3992   12.9607 C.3     1  UNL1        0.0774
     19 N          63.2701   85.1482   14.4387 N.3     1  UNL1       -0.2700
     20 C          64.1777   85.9086   15.3596 C.3     1  UNL1        0.0897
     21 C          62.3127   84.1367   14.9958 C.3     1  UNL1        0.0897
@<TRIPOS>BOND
     1    11    10    1
     2    11    12    1
     3    12    13   ar
     4    13    14   ar
     5    14    15   ar
     6    15    16   ar
     7    11     1    1
     8     1     2   ar
     9     2    17    1
    10    17    18    1
    11    18    19    1
    12    19    20    1
    13    19    21    1
    14     2     3   ar
    15     3     4   ar
    16     4     5   ar
    17     5     6   ar
    18     6     7   ar
    19     7     8   ar
    20     8     9   ar
    21    16    12   ar
    22     9     1   ar
    23     9     4   ar
@<TRIPOS>MOLECULE
*****
 21 23 0 0 0
SMALL
GASTEIGER

@<TRIPOS>ATOM
      1 C          63.0694   84.9126   11.6849 C.ar    1  UNL1       -0.0153
      2 C          63.4297   85.8206   12.8233 C.ar    1  UNL1        0.0050
      3 S          62.8747   87.1816   12.5240 S.2     1  UNL1       -0.0915
      4 C          62.1715   87.1148   11.2007 C.ar    1  UNL1        0.0288
      5 C          61.4371   88.1498   10.4010 C.ar    1  UNL1        0.0065
      6 C          60.8231   87.7823    9.0827 C.ar    1  UNL1        0.0005
      7 C          60.9435   86.3800    8.5641 C.ar    1  UNL1        0.0000
      8 C          61.6779   85.3451    9.3638 C.ar    1  UNL1        0.0002
      9 C          62.2918   85.7125   10.6821 C.ar    1  UNL1        0.0025
     10 C          64.3429   82.9965   10.4777 C.3     1  UNL1        0.0100
     11 C          63.4245   83.4598   11.5696 C.3     1  UNL1        0.0524
     12 C          62.8612   82.4702   12.5459 C.ar    1  UNL1        0.0316
     13 C          62.2334   82.7961   13.8687 C.ar    1  UNL1        0.1020
     14 N          61.8110   81.5082   14.5112 N.ar    1  UNL1       -0.2351
     15 C          62.1777   80.3863   13.5857 C.ar    1  UNL1        0.1342
     16 S          62.8268   80.9809   12.3710 S.2     1  UNL1       -0.0685
     17 C          64.2081   85.4352   14.0461 C.3     1  UNL1        0.0499
     18 C          64.3880   86.4210   15.1623 C.3     1  UNL1        0.0774
     19 N          63.3395   86.5475   16.2274 N.3     1  UNL1       -0.2700
     20 C          62.5275   85.3510   16.6264 C.3     1  UNL1        0.0897
     21 C          63.1030   87.8704   16.8936 C.3     1  UNL1        0.0897
@<TRIPOS>BOND
     1    11    10    1
     2    11    12    1
     3    12    13   ar
     4    13    14   ar
     5    14    15   ar
     6    15    16   ar
     7    11     1    1
     8     1     2   ar
     9     2    17    1
    10    17    18    1
    11    18    19    1
    12    19    20    1
    13    19    21    1
    14     2     3   ar
    15     3     4   ar
    16     4     5   ar
    17     5     6   ar
    18     6     7   ar
    19     7     8   ar
    20     8     9   ar
    21    16    12   ar
    22     9     1   ar
    23     9     4   ar
@<TRIPOS>MOLECULE
*****
 21 23 0 0 0
SMALL
GASTEIGER

@<TRIPOS>ATOM
      1 C          62.9557   86.2848   12.3868 C.ar    1  UNL1       -0.0153
      2 C          62.2929   86.7014   11.1074 C.ar    1  UNL1        0.0050
      3 S          62.3991   88.1934   10.9948 S.2     1  UNL1       -0.0915
      4 C          63.1276   88.6989   12.2047 C.ar    1  UNL1        0.0288
      5 C          63.5221   90.0809   12.6341 C.ar    1  UNL1        0.0065
      6 C          64.2606   90.2833   13.9239 C.ar    1  UNL1        0.0005
      7 C          64.6046   89.1037   14.7842 C.ar    1  UNL1        0.0000
      8 C          64.2101   87.7217   14.3548 C.ar    1  UNL1        0.0002
      9 C          63.4716   87.5193   13.0650 C.ar    1  UNL1        0.0025
     10 C          62.8366   84.5858   14.3489 C.3     1  UNL1        0.0100
     11 C          63.0808   84.8803   12.8984 C.3     1  UNL1        0.0524
     12 C          63.4499   83.7702   11.9596 C.ar    1  UNL1        0.0316
     13 C          64.5953   83.7787   10.9912 C.ar    1  UNL1        0.1020
     14 N          64.5918   82.4704   10.2575 N.ar    1  UNL1       -0.2351
     15 C          63.4442   81.6533   10.7724 C.ar    1  UNL1        0.1342
     16 S          62.7384   82.4566   11.8245 S.2     1  UNL1       -0.0685
     17 C          61.6387   85.7867   10.1148 C.3     1  UNL1        0.0499
     18 C          62.1123   85.7622    8.6918 C.3     1  UNL1        0.0774
     19 N          61.1284   85.5632    7.5771 N.3     1  UNL1       -0.2700
     20 C          61.4801   84.6829    6.4146 C.3     1  UNL1        0.0897
     21 C          59.7930   86.2445    7.6250 C.3     1  UNL1        0.0897
@<TRIPOS>BOND
     1    11    10    1
     2    11    12    1
     3    12    13   ar
     4    13    14   ar
     5    14    15   ar
     6    15    16   ar
     7    11     1    1
     8     1     2   ar
     9     2    17    1
    10    17    18    1
    11    18    19    1
    12    19    20    1
    13    19    21    1
    14     2     3   ar
    15     3     4   ar
    16     4     5   ar
    17     5     6   ar
    18     6     7   ar
    19     7     8   ar
    20     8     9   ar
    21    16    12   ar
    22     9     1   ar
    23     9     4   ar
@<TRIPOS>MOLECULE
*****
 21 23 0 0 0
SMALL
GASTEIGER

@<TRIPOS>ATOM
      1 C          62.4844   86.9025   10.4999 C.ar    1  UNL1       -0.0153
      2 C          62.6588   86.0581   11.7273 C.ar    1  UNL1        0.0050
      3 S          63.0461   86.9616   12.8602 S.2     1  UNL1       -0.0915
      4 C          63.1111   88.3644   12.3331 C.ar    1  UNL1        0.0288
      5 C          63.4416   89.6703   12.9929 C.ar    1  UNL1        0.0065
      6 C          63.4248   90.9396   12.1940 C.ar    1  UNL1        0.0005
      7 C          63.0776   90.9031   10.7352 C.ar    1  UNL1        0.0000
      8 C          62.7472   89.5973   10.0753 C.ar    1  UNL1        0.0002
      9 C          62.7639   88.3279   10.8743 C.ar    1  UNL1        0.0025
     10 C          63.0315   85.5196    8.3694 C.3     1  UNL1        0.0100
     11 C          62.0983   86.4084    9.1373 C.3     1  UNL1        0.0524
     12 C          60.7790   86.8028    8.5424 C.ar    1  UNL1        0.0316
     13 C          59.8743   85.9170    7.7382 C.ar    1  UNL1        0.1020
     14 N          58.6690   86.7191    7.3461 N.ar    1  UNL1       -0.2351
     15 C          58.8287   88.1007    7.9079 C.ar    1  UNL1        0.1342
     16 S          60.1329   88.1524    8.6473 S.2     1  UNL1       -0.0685
     17 C          62.4777   84.5712   11.8076 C.3     1  UNL1        0.0499
     18 C          63.2802   83.7698   12.7893 C.3     1  UNL1        0.0774
     19 N          62.6190   83.1960   14.0073 N.3     1  UNL1       -0.2700
     20 C          62.5234   84.0110   15.2630 C.3     1  UNL1        0.0897
     21 C          62.0535   81.8072   13.9696 C.3     1  UNL1        0.0897
@<TRIPOS>BOND
     1    11    10    1
     2    11    12    1
     3    12    13   ar
     4    13    14   ar
     5    14    15   ar
     6    15    16   ar
     7    11     1    1
     8     1     2   ar
     9     2    17    1
    10    17    18    1
    11    18    19    1
    12    19    20    1
    13    19    21    1
    14     2     3   ar
    15     3     4   ar
    16     4     5   ar
    17     5     6   ar
    18     6     7   ar
    19     7     8   ar
    20     8     9   ar
    21    16    12   ar
    22     9     1   ar
    23     9     4   ar
@<TRIPOS>MOLECULE
*****
 21 23 0 0 0
SMALL
GASTEIGER

@<TRIPOS>ATOM
      1 C          62.6910   86.2227   11.6097 C.ar    1  UNL1       -0.0153
      2 C          63.1578   87.3710   12.4543 C.ar    1  UNL1        0.0050
      3 S          62.5470   88.6271   11.9073 S.2     1  UNL1       -0.0915
      4 C          61.7027   88.2551   10.7246 C.ar    1  UNL1        0.0288
      5 C          60.8644   89.0774    9.7914 C.ar    1  UNL1        0.0065
      6 C          60.1151   88.4138    8.6743 C.ar    1  UNL1        0.0005
      7 C          60.2041   86.9278    8.4903 C.ar    1  UNL1        0.0000
      8 C          61.0424   86.1054    9.4235 C.ar    1  UNL1        0.0002
      9 C          61.7917   86.7690   10.5406 C.ar    1  UNL1        0.0025
     10 C          63.3059   83.9058   10.6076 C.3     1  UNL1        0.0100
     11 C          63.0589   84.7811   11.8005 C.3     1  UNL1        0.0524
     12 C          63.1798   84.2147   13.1841 C.ar    1  UNL1        0.0316
     13 C          64.4115   83.6012   13.7812 C.ar    1  UNL1        0.1020
     14 N          64.0832   83.1697   15.1797 N.ar    1  UNL1       -0.2351
     15 C          62.6486   83.5164   15.4471 C.ar    1  UNL1        0.1342
     16 S          62.0902   84.1623   14.2137 S.2     1  UNL1       -0.0685
     17 C          64.0744   87.2794   13.6381 C.3     1  UNL1        0.0499
     18 C          64.2257   88.4513   14.5621 C.3     1  UNL1        0.0774
     19 N          63.5414   88.4471   15.8969 N.3     1  UNL1       -0.2700
     20 C          63.1292   89.7419   16.5324 C.3     1  UNL1        0.0897
     21 C          63.2692   87.1483   16.5962 C.3     1  UNL1        0.0897
@<TRIPOS>BOND
     1    11    10    1
     2    11    12    1
     3    12    13   ar
     4    13    14   ar
     5    14    15   ar
     6    15    16   ar
     7    11     1    1
     8     1     2   ar
     9     2    17    1
    10    17    18    1
    11    18    19    1
    12    19    20    1
    13    19    21    1
    14     2     3   ar
    15     3     4   ar
    16     4     5   ar
    17     5     6   ar
    18     6     7   ar
    19     7     8   ar
    20     8     9   ar
    21    16    12   ar
    22     9     1   ar
    23     9     4   ar
