@<TRIPOS>MOLECULE
*****
 24 27 0 0 0
SMALL
GASTEIGER

@<TRIPOS>ATOM
      1 C          66.1063   92.4316   11.9526 C.ar    1  UNL1       -0.0144
      2 C          64.7554   91.7841   11.8755 C.ar    1  UNL1        0.0051
      3 S          64.2950   91.5044   13.2754 S.2     1  UNL1       -0.0915
      4 C          65.3613   91.9790   14.2177 C.ar    1  UNL1        0.0288
      5 C          65.4575   91.9634   15.7145 C.ar    1  UNL1        0.0065
      6 C          66.6732   92.5207   16.3937 C.ar    1  UNL1        0.0005
      7 C          67.7927   93.0937   15.5761 C.ar    1  UNL1        0.0000
      8 C          67.6965   93.1094   14.0793 C.ar    1  UNL1        0.0002
      9 C          66.4808   92.5520   13.4001 C.ar    1  UNL1        0.0025
     10 C          68.0399   92.0038   10.2707 C.3     1  UNL1        0.0110
     11 C          66.9370   92.8799   10.7868 C.3     1  UNL1        0.0627
     12 C          66.6649   94.2041   10.1371 C.ar    1  UNL1        0.0627
     13 C          67.3081   94.5419    8.8247 C.ar    1  UNL1        0.0151
     14 C          67.0360   95.8662    8.1749 C.ar    1  UNL1        0.0028
     15 C          66.1206   96.8527    8.8375 C.ar    1  UNL1        0.0207
     16 C          65.4775   96.5149   10.1498 C.ar    1  UNL1        0.0985
     17 N          65.7496   95.1907   10.7996 N.ar    1  UNL1       -0.2478
     18 C          63.9980   91.4713   10.6192 C.3     1  UNL1        0.0499
     19 C          62.5837   90.9780   10.6992 C.3     1  UNL1        0.0773
     20 N          62.2973   89.5073   10.6279 N.3     1  UNL1       -0.2724
     21 C          62.8033   88.4633   11.5788 C.3     1  UNL1        0.0721
     22 C          62.2732   87.1332   11.1317 C.3     1  UNL1        0.0188
     23 C          61.4396   87.3551    9.9045 C.3     1  UNL1        0.0188
     24 C          61.4545   88.8224    9.5932 C.3     1  UNL1        0.0721
@<TRIPOS>BOND
     1    11    10    1
     2    11    12    1
     3    12    13   ar
     4    13    14   ar
     5    14    15   ar
     6    15    16   ar
     7    16    17   ar
     8    11     1    1
     9     1     2   ar
    10     2    18    1
    11    18    19    1
    12    19    20    1
    13    20    21    1
    14    21    22    1
    15    22    23    1
    16    23    24    1
    17     2     3   ar
    18     3     4   ar
    19     4     5   ar
    20     5     6   ar
    21     6     7   ar
    22     7     8   ar
    23     8     9   ar
    24    17    12   ar
    25     9     1   ar
    26    24    20    1
    27     9     4   ar
@<TRIPOS>MOLECULE
*****
 24 27 0 0 0
SMALL
GASTEIGER

@<TRIPOS>ATOM
      1 C          63.7379   90.5064   13.8034 C.ar    1  UNL1       -0.0144
      2 C          62.7134   90.2940   12.7286 C.ar    1  UNL1        0.0051
      3 S          63.2085   90.9587   11.4784 S.2     1  UNL1       -0.0915
      4 C          64.5391   91.5819   11.7805 C.ar    1  UNL1        0.0288
      5 C          65.4950   92.3678   10.9328 C.ar    1  UNL1        0.0065
      6 C          66.7780   92.8741   11.5221 C.ar    1  UNL1        0.0005
      7 C          67.1052   92.5946   12.9591 C.ar    1  UNL1        0.0000
      8 C          66.1493   91.8087   13.8067 C.ar    1  UNL1        0.0002
      9 C          64.8663   91.3024   13.2175 C.ar    1  UNL1        0.0025
     10 C          63.5132   90.9862   16.3470 C.3     1  UNL1        0.0110
     11 C          63.6497   90.0100   15.2162 C.3     1  UNL1        0.0627
     12 C          63.6979   88.5377   15.4982 C.ar    1  UNL1        0.0627
     13 C          64.4344   87.6196   14.5682 C.ar    1  UNL1        0.0151
     14 C          64.4827   86.1471   14.8502 C.ar    1  UNL1        0.0028
     15 C          63.7944   85.5927   16.0623 C.ar    1  UNL1        0.0207
     16 C          63.0580   86.5107   16.9922 C.ar    1  UNL1        0.0985
     17 N          63.0097   87.9832   16.7102 N.ar    1  UNL1       -0.2478
     18 C          61.4207   89.5479   12.8779 C.3     1  UNL1        0.0499
     19 C          60.5737   89.2663   11.6723 C.3     1  UNL1        0.0773
     20 N          60.8628   88.0695   10.8155 N.3     1  UNL1       -0.2724
     21 C          62.0186   87.1272   10.9782 C.3     1  UNL1        0.0721
     22 C          61.9169   86.0802    9.9088 C.3     1  UNL1        0.0188
     23 C          60.6984   86.3754    9.0853 C.3     1  UNL1        0.0188
     24 C          60.0470   87.6049    9.6457 C.3     1  UNL1        0.0721
@<TRIPOS>BOND
     1    11    10    1
     2    11    12    1
     3    12    13   ar
     4    13    14   ar
     5    14    15   ar
     6    15    16   ar
     7    16    17   ar
     8    11     1    1
     9     1     2   ar
    10     2    18    1
    11    18    19    1
    12    19    20    1
    13    20    21    1
    14    21    22    1
    15    22    23    1
    16    23    24    1
    17     2     3   ar
    18     3     4   ar
    19     4     5   ar
    20     5     6   ar
    21     6     7   ar
    22     7     8   ar
    23     8     9   ar
    24    17    12   ar
    25     9     1   ar
    26    24    20    1
    27     9     4   ar
@<TRIPOS>MOLECULE
*****
 24 27 0 0 0
SMALL
GASTEIGER

@<TRIPOS>ATOM
      1 C          63.8009   90.7836   13.3928 C.ar    1  UNL1       -0.0144
      2 C          64.7638   91.5854   12.5684 C.ar    1  UNL1        0.0051
      3 S          64.2401   91.6371   11.1638 S.2     1  UNL1       -0.0915
      4 C          62.9536   90.8671   11.1200 C.ar    1  UNL1        0.0288
      5 C          61.9942   90.5782   10.0038 C.ar    1  UNL1        0.0065
      6 C          60.7633   89.7618   10.2652 C.ar    1  UNL1        0.0005
      7 C          60.4918   89.2343   11.6429 C.ar    1  UNL1        0.0000
      8 C          61.4512   89.5232   12.7591 C.ar    1  UNL1        0.0002
      9 C          62.6821   90.3396   12.4977 C.ar    1  UNL1        0.0025
     10 C          64.1967   91.5874   15.8316 C.3     1  UNL1        0.0110
     11 C          63.9334   90.4790   14.8556 C.3     1  UNL1        0.0627
     12 C          63.8027   89.0664   15.3425 C.ar    1  UNL1        0.0627
     13 C          63.1225   88.7833   16.6492 C.ar    1  UNL1        0.0151
     14 C          62.9918   87.3706   17.1361 C.ar    1  UNL1        0.0028
     15 C          63.5413   86.2409   16.3164 C.ar    1  UNL1        0.0207
     16 C          64.2215   86.5239   15.0098 C.ar    1  UNL1        0.0985
     17 N          64.3522   87.9366   14.5229 N.ar    1  UNL1       -0.2478
     18 C          66.0284   92.2236   13.0620 C.3     1  UNL1        0.0499
     19 C          66.5167   93.4988   12.4412 C.3     1  UNL1        0.0773
     20 N          67.1252   93.4807   11.0703 N.3     1  UNL1       -0.2724
     21 C          67.0734   94.5954   10.0678 C.3     1  UNL1        0.0721
     22 C          67.8084   94.1482    8.8391 C.3     1  UNL1        0.0188
     23 C          68.3145   92.7572    9.0821 C.3     1  UNL1        0.0188
     24 C          67.8923   92.3447   10.4611 C.3     1  UNL1        0.0721
@<TRIPOS>BOND
     1    11    10    1
     2    11    12    1
     3    12    13   ar
     4    13    14   ar
     5    14    15   ar
     6    15    16   ar
     7    16    17   ar
     8    11     1    1
     9     1     2   ar
    10     2    18    1
    11    18    19    1
    12    19    20    1
    13    20    21    1
    14    21    22    1
    15    22    23    1
    16    23    24    1
    17     2     3   ar
    18     3     4   ar
    19     4     5   ar
    20     5     6   ar
    21     6     7   ar
    22     7     8   ar
    23     8     9   ar
    24    17    12   ar
    25     9     1   ar
    26    24    20    1
    27     9     4   ar
@<TRIPOS>MOLECULE
*****
 24 27 0 0 0
SMALL
GASTEIGER

@<TRIPOS>ATOM
      1 C          64.8288   91.7289   12.6464 C.ar    1  UNL1       -0.0144
      2 C          64.0041   90.6894   13.3459 C.ar    1  UNL1        0.0051
      3 S          64.4126   90.6678   14.7890 S.2     1  UNL1       -0.0915
      4 C          65.4897   91.6938   14.9814 C.ar    1  UNL1        0.0288
      5 C          66.2695   92.1156   16.1913 C.ar    1  UNL1        0.0065
      6 C          67.3066   93.1933   16.0769 C.ar    1  UNL1        0.0005
      7 C          67.5638   93.8491   14.7527 C.ar    1  UNL1        0.0000
      8 C          66.7840   93.4273   13.5428 C.ar    1  UNL1        0.0002
      9 C          65.7470   92.3496   13.6571 C.ar    1  UNL1        0.0025
     10 C          63.6113   91.5777   10.3561 C.3     1  UNL1        0.0110
     11 C          64.7493   92.0851   11.1914 C.3     1  UNL1        0.0627
     12 C          65.8076   92.9487   10.5718 C.ar    1  UNL1        0.0627
     13 C          67.0739   92.3305   10.0573 C.ar    1  UNL1        0.0151
     14 C          68.1323   93.1941    9.4376 C.ar    1  UNL1        0.0028
     15 C          67.9245   94.6759    9.3324 C.ar    1  UNL1        0.0207
     16 C          66.6583   95.2941    9.8468 C.ar    1  UNL1        0.0985
     17 N          65.5999   94.4305   10.4665 N.ar    1  UNL1       -0.2478
     18 C          62.9551   89.8237   12.7134 C.3     1  UNL1        0.0499
     19 C          63.2201   88.3638   12.4935 C.3     1  UNL1        0.0773
     20 N          62.4959   87.6253   11.4071 N.3     1  UNL1       -0.2724
     21 C          61.9775   88.2198   10.1312 C.3     1  UNL1        0.0721
     22 C          61.3240   87.1246    9.3415 C.3     1  UNL1        0.0188
     23 C          61.4386   85.8533   10.1293 C.3     1  UNL1        0.0188
     24 C          62.1628   86.1628   11.4059 C.3     1  UNL1        0.0721
@<TRIPOS>BOND
     1    11    10    1
     2    11    12    1
     3    12    13   ar
     4    13    14   ar
     5    14    15   ar
     6    15    16   ar
     7    16    17   ar
     8    11     1    1
     9     1     2   ar
    10     2    18    1
    11    18    19    1
    12    19    20    1
    13    20    21    1
    14    21    22    1
    15    22    23    1
    16    23    24    1
    17     2     3   ar
    18     3     4   ar
    19     4     5   ar
    20     5     6   ar
    21     6     7   ar
    22     7     8   ar
    23     8     9   ar
    24    17    12   ar
    25     9     1   ar
    26    24    20    1
    27     9     4   ar
@<TRIPOS>MOLECULE
*****
 24 27 0 0 0
SMALL
GASTEIGER

@<TRIPOS>ATOM
      1 C          63.4096   87.0974   12.9356 C.ar    1  UNL1       -0.0144
      2 C          63.6127   88.5716   13.1236 C.ar    1  UNL1        0.0051
      3 S          62.9378   89.2811   11.9873 S.2     1  UNL1       -0.0915
      4 C          62.3176   88.2454   11.0971 C.ar    1  UNL1        0.0288
      5 C          61.5250   88.3569    9.8285 C.ar    1  UNL1        0.0065
      6 C          61.0239   87.1188    9.1460 C.ar    1  UNL1        0.0005
      7 C          61.3155   85.7691    9.7320 C.ar    1  UNL1        0.0000
      8 C          62.1081   85.6576   11.0006 C.ar    1  UNL1        0.0002
      9 C          62.6091   86.8958   11.6831 C.ar    1  UNL1        0.0025
     10 C          64.7526   86.3672   15.0364 C.3     1  UNL1        0.0110
     11 C          63.9176   86.0148   13.8410 C.3     1  UNL1        0.0627
     12 C          63.5909   84.5799   13.5512 C.ar    1  UNL1        0.0627
     13 C          64.4369   83.7970   12.5913 C.ar    1  UNL1        0.0151
     14 C          64.1102   82.3620   12.3015 C.ar    1  UNL1        0.0028
     15 C          62.9374   81.7098   12.9716 C.ar    1  UNL1        0.0207
     16 C          62.0913   82.4926   13.9315 C.ar    1  UNL1        0.0985
     17 N          62.4181   83.9276   14.2213 N.ar    1  UNL1       -0.2478
     18 C          64.3596   89.2221   14.2501 C.3     1  UNL1        0.0499
     19 C          64.0622   90.6437   14.6251 C.3     1  UNL1        0.0773
     20 N          65.0622   91.7221   14.3302 N.3     1  UNL1       -0.2724
     21 C          65.9668   92.3826   15.3280 C.3     1  UNL1        0.0721
     22 C          66.7968   93.3981   14.6001 C.3     1  UNL1        0.0188
     23 C          66.4052   93.3653   13.1525 C.3     1  UNL1        0.0188
     24 C          65.3332   92.3295   12.9857 C.3     1  UNL1        0.0721
@<TRIPOS>BOND
     1    11    10    1
     2    11    12    1
     3    12    13   ar
     4    13    14   ar
     5    14    15   ar
     6    15    16   ar
     7    16    17   ar
     8    11     1    1
     9     1     2   ar
    10     2    18    1
    11    18    19    1
    12    19    20    1
    13    20    21    1
    14    21    22    1
    15    22    23    1
    16    23    24    1
    17     2     3   ar
    18     3     4   ar
    19     4     5   ar
    20     5     6   ar
    21     6     7   ar
    22     7     8   ar
    23     8     9   ar
    24    17    12   ar
    25     9     1   ar
    26    24    20    1
    27     9     4   ar
@<TRIPOS>MOLECULE
*****
 24 27 0 0 0
SMALL
GASTEIGER

@<TRIPOS>ATOM
      1 C          63.1701   90.4032   12.6572 C.ar    1  UNL1       -0.0144
      2 C          63.4813   90.2179   14.1128 C.ar    1  UNL1        0.0051
      3 S          64.7079   91.0209   14.4304 S.2     1  UNL1       -0.0915
      4 C          65.1547   91.7024   13.1710 C.ar    1  UNL1        0.0288
      5 C          66.3041   92.6213   12.8807 C.ar    1  UNL1        0.0065
      6 C          66.5031   93.1584   11.4944 C.ar    1  UNL1        0.0005
      7 C          65.5527   92.7767   10.3985 C.ar    1  UNL1        0.0000
      8 C          64.4033   91.8578   10.6889 C.ar    1  UNL1        0.0002
      9 C          64.2043   91.3207   12.0752 C.ar    1  UNL1        0.0025
     10 C          60.7265   90.5187   11.7821 C.3     1  UNL1        0.0110
     11 C          62.0256   89.7804   11.9141 C.3     1  UNL1        0.0627
     12 C          62.1801   88.4193   11.3029 C.ar    1  UNL1        0.0627
     13 C          61.9610   88.2287    9.8312 C.ar    1  UNL1        0.0151
     14 C          62.1154   86.8676    9.2200 C.ar    1  UNL1        0.0028
     15 C          62.4890   85.6971   10.0805 C.ar    1  UNL1        0.0207
     16 C          62.7082   85.8877   11.5521 C.ar    1  UNL1        0.0985
     17 N          62.5537   87.2488   12.1633 N.ar    1  UNL1       -0.2478
     18 C          62.7028   89.3772   15.0809 C.3     1  UNL1        0.0499
     19 C          63.4238   88.5191   16.0777 C.3     1  UNL1        0.0773
     20 N          63.7345   87.0886   15.7501 N.3     1  UNL1       -0.2724
     21 C          63.1272   85.8826   16.4034 C.3     1  UNL1        0.0721
     22 C          63.7245   84.6616   15.7687 C.3     1  UNL1        0.0188
     23 C          64.7008   85.1131   14.7232 C.3     1  UNL1        0.0188
     24 C          64.7069   86.6131   14.7117 C.3     1  UNL1        0.0721
@<TRIPOS>BOND
     1    11    10    1
     2    11    12    1
     3    12    13   ar
     4    13    14   ar
     5    14    15   ar
     6    15    16   ar
     7    16    17   ar
     8    11     1    1
     9     1     2   ar
    10     2    18    1
    11    18    19    1
    12    19    20    1
    13    20    21    1
    14    21    22    1
    15    22    23    1
    16    23    24    1
    17     2     3   ar
    18     3     4   ar
    19     4     5   ar
    20     5     6   ar
    21     6     7   ar
    22     7     8   ar
    23     8     9   ar
    24    17    12   ar
    25     9     1   ar
    26    24    20    1
    27     9     4   ar
@<TRIPOS>MOLECULE
*****
 24 27 0 0 0
SMALL
GASTEIGER

@<TRIPOS>ATOM
      1 C          64.0670   89.8773   13.6978 C.ar    1  UNL1       -0.0144
      2 C          63.3303   90.1070   12.4116 C.ar    1  UNL1        0.0051
      3 S          63.9281   91.3096   11.7435 S.2     1  UNL1       -0.0915
      4 C          65.0342   91.8232   12.6168 C.ar    1  UNL1        0.0288
      5 C          65.9743   92.9825   12.4683 C.ar    1  UNL1        0.0065
      6 C          67.0002   93.2566   13.5276 C.ar    1  UNL1        0.0005
      7 C          67.0860   92.3714   14.7355 C.ar    1  UNL1        0.0000
      8 C          66.1460   91.2121   14.8841 C.ar    1  UNL1        0.0002
      9 C          65.1200   90.9380   13.8247 C.ar    1  UNL1        0.0025
     10 C          63.3159   89.1135   16.0649 C.3     1  UNL1        0.0110
     11 C          63.7978   88.7797   14.6841 C.3     1  UNL1        0.0627
     12 C          64.0106   87.3482   14.2898 C.ar    1  UNL1        0.0627
     13 C          64.9755   86.4942   15.0578 C.ar    1  UNL1        0.0151
     14 C          65.1883   85.0627   14.6636 C.ar    1  UNL1        0.0028
     15 C          64.4363   84.4851   13.5013 C.ar    1  UNL1        0.0207
     16 C          63.4715   85.3391   12.7333 C.ar    1  UNL1        0.0985
     17 N          63.2586   86.7706   13.1276 N.ar    1  UNL1       -0.2478
     18 C          62.1952   89.2794   11.8857 C.3     1  UNL1        0.0499
     19 C          61.6346   89.5553   10.5220 C.3     1  UNL1        0.0773
     20 N          61.1936   88.4186    9.6483 N.3     1  UNL1       -0.2724
     21 C          61.8520   87.0742    9.5514 C.3     1  UNL1        0.0721
     22 C          61.0821   86.2515    8.5612 C.3     1  UNL1        0.0188
     23 C          59.9480   87.0873    8.0462 C.3     1  UNL1        0.0188
     24 C          60.0169   88.4267    8.7181 C.3     1  UNL1        0.0721
@<TRIPOS>BOND
     1    11    10    1
     2    11    12    1
     3    12    13   ar
     4    13    14   ar
     5    14    15   ar
     6    15    16   ar
     7    16    17   ar
     8    11     1    1
     9     1     2   ar
    10     2    18    1
    11    18    19    1
    12    19    20    1
    13    20    21    1
    14    21    22    1
    15    22    23    1
    16    23    24    1
    17     2     3   ar
    18     3     4   ar
    19     4     5   ar
    20     5     6   ar
    21     6     7   ar
    22     7     8   ar
    23     8     9   ar
    24    17    12   ar
    25     9     1   ar
    26    24    20    1
    27     9     4   ar
@<TRIPOS>MOLECULE
*****
 24 27 0 0 0
SMALL
GASTEIGER

@<TRIPOS>ATOM
      1 C          62.2932   86.6030   10.8917 C.ar    1  UNL1       -0.0144
      2 C          62.5925   87.8866   11.6076 C.ar    1  UNL1        0.0051
      3 S          61.7939   88.9771   10.9573 S.2     1  UNL1       -0.0915
      4 C          61.0010   88.3674    9.8394 C.ar    1  UNL1        0.0288
      5 C          60.0378   88.9588    8.8532 C.ar    1  UNL1        0.0065
      6 C          59.3833   88.0828    7.8265 C.ar    1  UNL1        0.0005
      7 C          59.6919   86.6155    7.7860 C.ar    1  UNL1        0.0000
      8 C          60.6551   86.0241    8.7721 C.ar    1  UNL1        0.0002
      9 C          61.3096   86.9001    9.7989 C.ar    1  UNL1        0.0025
     10 C          63.2546   84.3215   10.1036 C.3     1  UNL1        0.0110
     11 C          62.8753   85.2582   11.2122 C.3     1  UNL1        0.0627
     12 C          63.0783   84.8500   12.6412 C.ar    1  UNL1        0.0627
     13 C          64.4363   84.4222   13.1134 C.ar    1  UNL1        0.0151
     14 C          64.6393   84.0140   14.5425 C.ar    1  UNL1        0.0028
     15 C          63.4842   84.0337   15.4994 C.ar    1  UNL1        0.0207
     16 C          62.1263   84.4615   15.0272 C.ar    1  UNL1        0.0985
     17 N          61.9233   84.8697   13.5982 N.ar    1  UNL1       -0.2478
     18 C          63.5265   88.0510   12.7698 C.3     1  UNL1        0.0499
     19 C          63.4116   89.2525   13.6603 C.3     1  UNL1        0.0773
     20 N          64.3245   90.4256   13.4586 N.3     1  UNL1       -0.2724
     21 C          64.2718   91.3979   12.3175 C.3     1  UNL1        0.0721
     22 C          65.3651   92.4055   12.5163 C.3     1  UNL1        0.0188
     23 C          66.0935   92.0559   13.7802 C.3     1  UNL1        0.0188
     24 C          65.4503   90.8322   14.3625 C.3     1  UNL1        0.0721
@<TRIPOS>BOND
     1    11    10    1
     2    11    12    1
     3    12    13   ar
     4    13    14   ar
     5    14    15   ar
     6    15    16   ar
     7    16    17   ar
     8    11     1    1
     9     1     2   ar
    10     2    18    1
    11    18    19    1
    12    19    20    1
    13    20    21    1
    14    21    22    1
    15    22    23    1
    16    23    24    1
    17     2     3   ar
    18     3     4   ar
    19     4     5   ar
    20     5     6   ar
    21     6     7   ar
    22     7     8   ar
    23     8     9   ar
    24    17    12   ar
    25     9     1   ar
    26    24    20    1
    27     9     4   ar
@<TRIPOS>MOLECULE
*****
 24 27 0 0 0
SMALL
GASTEIGER

@<TRIPOS>ATOM
      1 C          62.9173   86.1703   12.1606 C.ar    1  UNL1       -0.0144
      2 C          63.5774   87.0534   13.1777 C.ar    1  UNL1        0.0051
      3 S          64.1292   86.1778   14.2634 S.2     1  UNL1       -0.0915
      4 C          63.8102   84.7535   13.9173 C.ar    1  UNL1        0.0288
      5 C          64.1049   83.4603   14.6177 C.ar    1  UNL1        0.0065
      6 C          63.6507   82.1624   14.0185 C.ar    1  UNL1        0.0005
      7 C          62.9017   82.1578   12.7189 C.ar    1  UNL1        0.0000
      8 C          62.6070   83.4510   12.0185 C.ar    1  UNL1        0.0002
      9 C          63.0612   84.7489   12.6177 C.ar    1  UNL1        0.0025
     10 C          62.3491   85.8168    9.6502 C.3     1  UNL1        0.0110
     11 C          62.2335   86.6282   10.9066 C.3     1  UNL1        0.0627
     12 C          61.4340   87.8973   10.9088 C.ar    1  UNL1        0.0627
     13 C          61.8251   89.0317   10.0085 C.ar    1  UNL1        0.0151
     14 C          61.0257   90.3009   10.0107 C.ar    1  UNL1        0.0028
     15 C          59.8351   90.4357   10.9131 C.ar    1  UNL1        0.0207
     16 C          59.4440   89.3014   11.8133 C.ar    1  UNL1        0.0985
     17 N          60.2434   88.0322   11.8111 N.ar    1  UNL1       -0.2478
     18 C          63.6695   88.5494   13.1193 C.3     1  UNL1        0.0499
     19 C          64.3589   89.3019   14.2186 C.3     1  UNL1        0.0773
     20 N          65.0357   90.6077   13.9237 N.3     1  UNL1       -0.2724
     21 C          66.1654   91.2113   14.7045 C.3     1  UNL1        0.0721
     22 C          66.5295   92.5157   14.0596 C.3     1  UNL1        0.0188
     23 C          65.6250   92.7183   12.8803 C.3     1  UNL1        0.0188
     24 C          64.7017   91.5391   12.7964 C.3     1  UNL1        0.0721
@<TRIPOS>BOND
     1    11    10    1
     2    11    12    1
     3    12    13   ar
     4    13    14   ar
     5    14    15   ar
     6    15    16   ar
     7    16    17   ar
     8    11     1    1
     9     1     2   ar
    10     2    18    1
    11    18    19    1
    12    19    20    1
    13    20    21    1
    14    21    22    1
    15    22    23    1
    16    23    24    1
    17     2     3   ar
    18     3     4   ar
    19     4     5   ar
    20     5     6   ar
    21     6     7   ar
    22     7     8   ar
    23     8     9   ar
    24    17    12   ar
    25     9     1   ar
    26    24    20    1
    27     9     4   ar
