@<TRIPOS>MOLECULE
*****
 42 46 0 0 0
SMALL
GASTEIGER

@<TRIPOS>ATOM
      1 C          62.9423   89.6269   11.5293 C.2     1  UNL1        0.2411
      2 O          62.7267   90.0816   12.3750 O.2     1  UNL1       -0.2733
      3 N          63.7304   90.4865   10.5860 N.am    1  UNL1       -0.2966
      4 H          64.0018   90.1332    9.7080 H       1  UNL1        0.1499
      5 C          62.5677   88.2289   11.1350 C.3     1  UNL1        0.1556
      6 C          62.5397   85.8108   12.0847 C.2     1  UNL1        0.4017
      7 O          63.4012   85.3532   10.9452 O.2     1  UNL1       -0.2264
      8 N          62.1229   87.2486   12.1796 N.am    1  UNL1       -0.2637
      9 H          61.5575   87.5490   12.9275 H       1  UNL1        0.1532
     10 O          62.0949   84.8305   13.1293 O.3     1  UNL1       -0.4419
     11 C          62.5236   82.7530   13.1357 C.3     1  UNL1        0.0437
     12 C          63.1030   83.9577   13.8163 C.3     1  UNL1        0.1378
     13 C          63.6823   85.1623   14.4968 C.3     1  UNL1        0.0437
     14 C          64.1110   83.0847   14.5032 C.3     1  UNL1        0.0437
     15 C          62.6379   87.8113    9.6960 C.3     1  UNL1        0.0600
     16 C          61.3815   87.4642    8.9536 C.ar    1  UNL1        0.0348
     17 C          61.2656   86.1438    8.2516 C.ar    1  UNL1        0.1384
     18 F          61.9449   85.4328    8.2111 F       1  UNL1       -0.2044
     19 C          60.0092   85.7968    7.5093 C.ar    1  UNL1        0.0295
     20 C          58.8687   86.7703    7.4689 C.ar    1  UNL1        0.0046
     21 C          58.9846   88.0908    8.1710 C.ar    1  UNL1        0.0295
     22 C          60.2410   88.4377    8.9133 C.ar    1  UNL1        0.1384
     23 F          60.3569   89.7583    9.6154 F       1  UNL1       -0.2044
     24 C          64.1049   91.8844   10.9802 C.3     1  UNL1        0.1543
     25 C          65.0328   92.1146   12.1361 C.ar    1  UNL1        0.1417
     26 N          64.6710   92.0234   13.5889 N.ar    1  UNL1       -0.2276
     27 C          65.9000   92.3288   14.3929 C.ar    1  UNL1        0.1167
     28 C          66.1428   92.3882   15.8719 C.ar    1  UNL1        0.0238
     29 C          67.5071   92.7274   16.3948 C.ar    1  UNL1        0.0223
     30 C          68.6286   93.0072   15.4388 C.ar    1  UNL1        0.1006
     31 N          68.3858   92.9479   13.9598 N.ar    1  UNL1       -0.2252
     32 C          67.0215   92.6086   13.4369 C.ar    1  UNL1        0.1626
     33 N          66.4855   92.4763   12.0421 N.ar    1  UNL1       -0.2990
     34 C          67.2654   92.6713   10.7757 C.3     1  UNL1        0.0898
     35 C          68.1923   92.3819    9.6325 C.3     1  UNL1        0.0273
     36 C          67.9596   91.3443   10.6903 C.3     1  UNL1        0.0273
     37 C          66.8422   94.0660   10.4213 C.ar    1  UNL1       -0.0037
     38 C          67.0304   94.5743    9.0227 C.ar    1  UNL1       -0.0025
     39 C          66.6071   95.9690    8.6683 C.ar    1  UNL1       -0.0003
     40 C          65.9956   96.8554    9.7125 C.ar    1  UNL1       -0.0000
     41 C          65.8074   96.3471   11.1112 C.ar    1  UNL1       -0.0003
     42 C          66.2307   94.9524   11.4656 C.ar    1  UNL1       -0.0025
@<TRIPOS>BOND
     1    11    12    1
     2    12    13    1
     3    12    14    1
     4    12    10    1
     5    10     6    1
     6     6     7    2
     7     6     8   am
     8     8     5    1
     9     5    15    1
    10    15    16    1
    11    16    17   ar
    12    17    18    1
    13    17    19   ar
    14    19    20   ar
    15    20    21   ar
    16    21    22   ar
    17    22    23    1
    18     5     1    1
    19     1     2    2
    20     1     3   am
    21     3    24    1
    22    24    25    1
    23    25    26   ar
    24    26    27   ar
    25    27    28   ar
    26    28    29   ar
    27    29    30   ar
    28    30    31   ar
    29    31    32   ar
    30    32    33   ar
    31    33    34    1
    32    34    37    1
    33    37    38   ar
    34    38    39   ar
    35    39    40   ar
    36    40    41   ar
    37    41    42   ar
    38    34    35    1
    39    35    36    1
    40    22    16   ar
    41    33    25   ar
    42    36    34    1
    43    32    27   ar
    44    42    37   ar
    45     8     9    1
    46     3     4    1
@<TRIPOS>MOLECULE
*****
 42 46 0 0 0
SMALL
GASTEIGER

@<TRIPOS>ATOM
      1 C          63.3758   86.9688   13.0030 C.2     1  UNL1        0.2411
      2 O          63.8856   86.8137   13.8304 O.2     1  UNL1       -0.2733
      3 N          63.2537   88.4224   12.6537 N.am    1  UNL1       -0.2966
      4 H          62.7633   88.6948   11.8446 H       1  UNL1        0.1499
      5 C          62.7509   85.9301   12.1195 C.3     1  UNL1        0.1556
      6 C          61.2247   86.5586   10.1130 C.2     1  UNL1        0.4017
      7 O          62.4365   86.7360    9.2469 O.2     1  UNL1       -0.2264
      8 N          61.3819   86.1556   11.5494 N.am    1  UNL1       -0.2637
      9 H          60.5866   86.0391   12.1178 H       1  UNL1        0.1532
     10 O          59.8558   86.7841    9.5429 O.3     1  UNL1       -0.4419
     11 C          60.1083   88.8831    9.3698 C.3     1  UNL1        0.0437
     12 C          59.6557   87.7897    8.4481 C.3     1  UNL1        0.1378
     13 C          59.2030   86.6964    7.5265 C.3     1  UNL1        0.0437
     14 C          59.4555   88.7955    7.3534 C.3     1  UNL1        0.0437
     15 C          63.4949   84.6658   11.8062 C.3     1  UNL1        0.0600
     16 C          63.0423   83.3633   12.3966 C.ar    1  UNL1        0.0348
     17 C          62.4671   83.3271   13.7814 C.ar    1  UNL1        0.1384
     18 F          62.3397   84.0900   14.3900 F       1  UNL1       -0.2044
     19 C          62.0145   82.0246   14.3718 C.ar    1  UNL1        0.0295
     20 C          62.1371   80.7582   13.5773 C.ar    1  UNL1        0.0046
     21 C          62.7123   80.7943   12.1925 C.ar    1  UNL1        0.0295
     22 C          63.1649   82.0969   11.6021 C.ar    1  UNL1        0.1384
     23 F          63.7402   82.1330   10.2172 F       1  UNL1       -0.2044
     24 C          63.8786   89.4612   13.5372 C.3     1  UNL1        0.1543
     25 C          64.3967   90.7375   12.9434 C.ar    1  UNL1        0.1417
     26 N          64.3490   91.1185   11.4934 N.ar    1  UNL1       -0.2276
     27 C          64.9764   92.4734   11.3492 C.ar    1  UNL1        0.1167
     28 C          65.2074   93.3505   10.1546 C.ar    1  UNL1        0.0238
     29 C          65.8738   94.6840   10.3209 C.ar    1  UNL1        0.0223
     30 C          66.3092   95.1403   11.6818 C.ar    1  UNL1        0.1006
     31 N          66.0782   94.2632   12.8765 N.ar    1  UNL1       -0.2252
     32 C          65.4118   92.9297   12.7102 C.ar    1  UNL1        0.1626
     33 N          65.0535   91.8569   13.6954 N.ar    1  UNL1       -0.2990
     34 C          65.3075   91.8965   15.1732 C.3     1  UNL1        0.0898
     35 C          65.0545   91.8162   16.6495 C.3     1  UNL1        0.0273
     36 C          63.9360   91.5649   15.6823 C.3     1  UNL1        0.0273
     37 C          66.7672   92.2419   15.1775 C.ar    1  UNL1       -0.0037
     38 C          67.7040   91.5513   14.2312 C.ar    1  UNL1       -0.0025
     39 C          69.1638   91.8967   14.2355 C.ar    1  UNL1       -0.0003
     40 C          69.6865   92.9327   15.1860 C.ar    1  UNL1       -0.0000
     41 C          68.7496   93.6232   16.1323 C.ar    1  UNL1       -0.0003
     42 C          67.2900   93.2779   16.1280 C.ar    1  UNL1       -0.0025
@<TRIPOS>BOND
     1    11    12    1
     2    12    13    1
     3    12    14    1
     4    12    10    1
     5    10     6    1
     6     6     7    2
     7     6     8   am
     8     8     5    1
     9     5    15    1
    10    15    16    1
    11    16    17   ar
    12    17    18    1
    13    17    19   ar
    14    19    20   ar
    15    20    21   ar
    16    21    22   ar
    17    22    23    1
    18     5     1    1
    19     1     2    2
    20     1     3   am
    21     3    24    1
    22    24    25    1
    23    25    26   ar
    24    26    27   ar
    25    27    28   ar
    26    28    29   ar
    27    29    30   ar
    28    30    31   ar
    29    31    32   ar
    30    32    33   ar
    31    33    34    1
    32    34    37    1
    33    37    38   ar
    34    38    39   ar
    35    39    40   ar
    36    40    41   ar
    37    41    42   ar
    38    34    35    1
    39    35    36    1
    40    22    16   ar
    41    33    25   ar
    42    36    34    1
    43    32    27   ar
    44    42    37   ar
    45     8     9    1
    46     3     4    1
@<TRIPOS>MOLECULE
*****
 42 46 0 0 0
SMALL
GASTEIGER

@<TRIPOS>ATOM
      1 C          62.6228   89.9463   11.8782 C.2     1  UNL1        0.2411
      2 O          62.4599   90.6027   12.5931 O.2     1  UNL1       -0.2733
      3 N          63.6123   90.4248   10.8575 N.am    1  UNL1       -0.2966
      4 H          63.8516   89.8487   10.0959 H       1  UNL1        0.1499
      5 C          61.9978   88.5898   11.7384 C.3     1  UNL1        0.1556
      6 C          63.5501   87.2952   13.3708 C.2     1  UNL1        0.4017
      7 O          63.5229   88.4576   14.3185 O.2     1  UNL1       -0.2264
      8 N          62.7875   87.3613   12.0808 N.am    1  UNL1       -0.2637
      9 H          62.8053   86.5984   11.4588 H       1  UNL1        0.1532
     10 O          64.3398   86.0668   13.7131 O.3     1  UNL1       -0.4419
     11 C          63.8925   85.4863   15.7038 C.3     1  UNL1        0.0437
     12 C          63.6590   84.8902   14.3474 C.3     1  UNL1        0.1378
     13 C          63.4255   84.2941   12.9909 C.3     1  UNL1        0.0437
     14 C          62.9783   83.7136   14.9817 C.3     1  UNL1        0.0437
     15 C          60.5832   88.4619   11.2564 C.3     1  UNL1        0.0600
     16 C          60.3074   88.0345    9.8452 C.ar    1  UNL1        0.0348
     17 C          59.8380   89.0394    8.8354 C.ar    1  UNL1        0.1384
     18 F          59.6774   89.9988    8.9849 F       1  UNL1       -0.2044
     19 C          59.5623   88.6121    7.4242 C.ar    1  UNL1        0.0295
     20 C          59.7561   87.1798    7.0229 C.ar    1  UNL1        0.0046
     21 C          60.2255   86.1749    8.0327 C.ar    1  UNL1        0.0295
     22 C          60.5012   86.6022    9.4438 C.ar    1  UNL1        0.1384
     23 F          60.9707   85.5973   10.4537 F       1  UNL1       -0.2044
     24 C          64.2373   91.7812   10.9972 C.3     1  UNL1        0.1543
     25 C          65.1536   92.0698   12.1492 C.ar    1  UNL1        0.1417
     26 N          64.7968   91.9806   13.6034 N.ar    1  UNL1       -0.2276
     27 C          66.0103   92.3539   14.4022 C.ar    1  UNL1        0.1167
     28 C          66.2504   92.4438   15.8801 C.ar    1  UNL1        0.0238
     29 C          67.5973   92.8538   16.3975 C.ar    1  UNL1        0.0223
     30 C          68.7041   93.1738   15.4370 C.ar    1  UNL1        0.1006
     31 N          68.4640   93.0839   13.9591 N.ar    1  UNL1       -0.2252
     32 C          67.1171   92.6739   13.4417 C.ar    1  UNL1        0.1626
     33 N          66.5876   92.4984   12.0493 N.ar    1  UNL1       -0.2990
     34 C          67.3571   92.7135   10.7798 C.3     1  UNL1        0.0898
     35 C          68.2883   92.4491    9.6340 C.3     1  UNL1        0.0273
     36 C          68.0901   91.4075   10.6949 C.3     1  UNL1        0.0273
     37 C          66.8915   94.0942   10.4238 C.ar    1  UNL1       -0.0037
     38 C          67.0936   94.6185    9.0330 C.ar    1  UNL1       -0.0025
     39 C          66.6279   95.9993    8.6769 C.ar    1  UNL1       -0.0003
     40 C          65.9602   96.8557    9.7117 C.ar    1  UNL1       -0.0000
     41 C          65.7580   96.3313   11.1025 C.ar    1  UNL1       -0.0003
     42 C          66.2237   94.9506   11.4585 C.ar    1  UNL1       -0.0025
@<TRIPOS>BOND
     1    11    12    1
     2    12    13    1
     3    12    14    1
     4    12    10    1
     5    10     6    1
     6     6     7    2
     7     6     8   am
     8     8     5    1
     9     5    15    1
    10    15    16    1
    11    16    17   ar
    12    17    18    1
    13    17    19   ar
    14    19    20   ar
    15    20    21   ar
    16    21    22   ar
    17    22    23    1
    18     5     1    1
    19     1     2    2
    20     1     3   am
    21     3    24    1
    22    24    25    1
    23    25    26   ar
    24    26    27   ar
    25    27    28   ar
    26    28    29   ar
    27    29    30   ar
    28    30    31   ar
    29    31    32   ar
    30    32    33   ar
    31    33    34    1
    32    34    37    1
    33    37    38   ar
    34    38    39   ar
    35    39    40   ar
    36    40    41   ar
    37    41    42   ar
    38    34    35    1
    39    35    36    1
    40    22    16   ar
    41    33    25   ar
    42    36    34    1
    43    32    27   ar
    44    42    37   ar
    45     8     9    1
    46     3     4    1
@<TRIPOS>MOLECULE
*****
 42 46 0 0 0
SMALL
GASTEIGER

@<TRIPOS>ATOM
      1 C          64.1655   91.4795   12.2255 C.2     1  UNL1        0.2411
      2 O          63.8889   91.4529   13.1696 O.2     1  UNL1       -0.2733
      3 N          63.3914   90.5289   11.3610 N.am    1  UNL1       -0.2966
      4 H          63.5845   90.4713   10.3974 H       1  UNL1        0.1499
      5 C          65.2338   92.3422   11.6216 C.3     1  UNL1        0.1556
      6 C          66.8939   93.1304   13.4581 C.2     1  UNL1        0.4017
      7 O          65.7937   93.9062   14.1197 O.2     1  UNL1       -0.2264
      8 N          66.6139   92.3485   12.2090 N.am    1  UNL1       -0.2637
      9 H          67.3360   91.8393   11.7747 H       1  UNL1        0.1532
     10 O          68.2741   93.1367   14.0454 O.3     1  UNL1       -0.4419
     11 C          67.8245   91.3375   15.0752 C.3     1  UNL1        0.0437
     12 C          68.4987   92.6273   15.4382 C.3     1  UNL1        0.1378
     13 C          69.1729   93.9171   15.8013 C.3     1  UNL1        0.0437
     14 C          68.7233   92.1178   16.8311 C.3     1  UNL1        0.0437
     15 C          64.9217   93.1987   10.4303 C.3     1  UNL1        0.0600
     16 C          65.8659   94.2913   10.0242 C.ar    1  UNL1        0.0348
     17 C          65.5075   95.7254   10.2787 C.ar    1  UNL1        0.1384
     18 F          64.6863   96.0645   10.7019 F       1  UNL1       -0.2044
     19 C          66.4517   96.8178    9.8725 C.ar    1  UNL1        0.0295
     20 C          67.7543   96.4762    9.2118 C.ar    1  UNL1        0.0046
     21 C          68.1127   95.0421    8.9573 C.ar    1  UNL1        0.0295
     22 C          67.1685   93.9496    9.3635 C.ar    1  UNL1        0.1384
     23 F          67.5269   92.5154    9.1089 F       1  UNL1       -0.2044
     24 C          62.3232   89.6662   11.9649 C.3     1  UNL1        0.1543
     25 C          62.5411   88.1884   12.1020 C.ar    1  UNL1        0.1417
     26 N          63.5121   87.5229   13.0316 N.ar    1  UNL1       -0.2276
     27 C          63.3973   86.0399   12.8378 C.ar    1  UNL1        0.1167
     28 C          64.1070   84.8857   13.4813 C.ar    1  UNL1        0.0238
     29 C          63.7746   83.4804   13.0754 C.ar    1  UNL1        0.0223
     30 C          62.7327   83.2294   12.0260 C.ar    1  UNL1        0.1006
     31 N          62.0230   84.3836   11.3825 N.ar    1  UNL1       -0.2252
     32 C          62.3554   85.7889   11.7884 C.ar    1  UNL1        0.1626
     33 N          61.8262   87.1167   11.3337 N.ar    1  UNL1       -0.2990
     34 C          60.7679   87.3346   10.2932 C.3     1  UNL1        0.0898
     35 C          59.5137   87.8378    9.6422 C.3     1  UNL1        0.0273
     36 C          59.8362   88.2316   11.0532 C.3     1  UNL1        0.0273
     37 C          61.3320   86.5134    9.1719 C.ar    1  UNL1       -0.0037
     38 C          60.4267   85.9904    8.0963 C.ar    1  UNL1       -0.0025
     39 C          60.9908   85.1691    6.9750 C.ar    1  UNL1       -0.0003
     40 C          62.4601   84.8709    6.9293 C.ar    1  UNL1       -0.0000
     41 C          63.3654   85.3939    8.0050 C.ar    1  UNL1       -0.0003
     42 C          62.8013   86.2151    9.1263 C.ar    1  UNL1       -0.0025
@<TRIPOS>BOND
     1    11    12    1
     2    12    13    1
     3    12    14    1
     4    12    10    1
     5    10     6    1
     6     6     7    2
     7     6     8   am
     8     8     5    1
     9     5    15    1
    10    15    16    1
    11    16    17   ar
    12    17    18    1
    13    17    19   ar
    14    19    20   ar
    15    20    21   ar
    16    21    22   ar
    17    22    23    1
    18     5     1    1
    19     1     2    2
    20     1     3   am
    21     3    24    1
    22    24    25    1
    23    25    26   ar
    24    26    27   ar
    25    27    28   ar
    26    28    29   ar
    27    29    30   ar
    28    30    31   ar
    29    31    32   ar
    30    32    33   ar
    31    33    34    1
    32    34    37    1
    33    37    38   ar
    34    38    39   ar
    35    39    40   ar
    36    40    41   ar
    37    41    42   ar
    38    34    35    1
    39    35    36    1
    40    22    16   ar
    41    33    25   ar
    42    36    34    1
    43    32    27   ar
    44    42    37   ar
    45     8     9    1
    46     3     4    1
@<TRIPOS>MOLECULE
*****
 42 46 0 0 0
SMALL
GASTEIGER

@<TRIPOS>ATOM
      1 C          62.4245   88.2190   12.2153 C.2     1  UNL1        0.2411
      2 O          61.8121   88.9777   12.3489 O.2     1  UNL1       -0.2733
      3 N          63.7268   88.3823   12.9415 N.am    1  UNL1       -0.2966
      4 H          64.4164   87.6824   12.8788 H       1  UNL1        0.1499
      5 C          62.1728   86.9894   11.3938 C.3     1  UNL1        0.1556
      6 C          62.6871   85.0292   13.0196 C.2     1  UNL1        0.4017
      7 O          64.0345   85.6220   13.3081 O.2     1  UNL1       -0.2264
      8 N          61.7563   85.7130   12.0625 N.am    1  UNL1       -0.2637
      9 H          60.8719   85.3239   11.8732 H       1  UNL1        0.1532
     10 O          62.2706   83.7528   13.6883 O.3     1  UNL1       -0.4419
     11 C          63.7159   82.7518   14.8753 C.3     1  UNL1        0.0437
     12 C          63.1028   82.5154   13.5269 C.3     1  UNL1        0.1378
     13 C          62.4898   82.2790   12.1785 C.3     1  UNL1        0.0437
     14 C          63.9351   81.2779   13.3655 C.3     1  UNL1        0.0437
     15 C          62.3377   87.0363    9.9037 C.3     1  UNL1        0.0600
     16 C          61.1805   87.4277    9.0330 C.ar    1  UNL1        0.0348
     17 C          60.3510   86.3698    8.3678 C.ar    1  UNL1        0.1384
     18 F          60.4725   85.3952    8.4306 F       1  UNL1       -0.2044
     19 C          59.1939   86.7612    7.4972 C.ar    1  UNL1        0.0295
     20 C          58.8664   88.2105    7.2918 C.ar    1  UNL1        0.0046
     21 C          59.6960   89.2684    7.9570 C.ar    1  UNL1        0.0295
     22 C          60.8531   88.8770    8.8276 C.ar    1  UNL1        0.1384
     23 F          61.6827   89.9350    9.4929 F       1  UNL1       -0.2044
     24 C          63.9785   89.6118   13.7629 C.3     1  UNL1        0.1543
     25 C          64.4844   90.8619   13.1063 C.ar    1  UNL1        0.1417
     26 N          64.3916   91.1902   11.6456 N.ar    1  UNL1       -0.2276
     27 C          65.0218   92.5345   11.4316 C.ar    1  UNL1        0.1167
     28 C          65.2187   93.3658   10.1987 C.ar    1  UNL1        0.0238
     29 C          65.8980   94.6997   10.2942 C.ar    1  UNL1        0.0223
     30 C          66.3803   95.2023   11.6227 C.ar    1  UNL1        0.1006
     31 N          66.1834   94.3710   12.8556 N.ar    1  UNL1       -0.2252
     32 C          65.5041   93.0370   12.7600 C.ar    1  UNL1        0.1626
     33 N          65.1720   92.0034   13.7950 N.ar    1  UNL1       -0.2990
     34 C          65.4745   92.0950   15.2613 C.3     1  UNL1        0.0898
     35 C          65.2661   92.0858   16.7468 C.3     1  UNL1        0.0273
     36 C          64.1088   91.8364   15.8257 C.3     1  UNL1        0.0273
     37 C          66.9450   92.3855   15.2064 C.ar    1  UNL1       -0.0037
     38 C          67.8234   91.6306   14.2533 C.ar    1  UNL1       -0.0025
     39 C          69.2941   91.9211   14.1982 C.ar    1  UNL1       -0.0003
     40 C          69.8861   92.9665   15.0964 C.ar    1  UNL1       -0.0000
     41 C          69.0076   93.7214   16.0495 C.ar    1  UNL1       -0.0003
     42 C          67.5371   93.4309   16.1045 C.ar    1  UNL1       -0.0025
@<TRIPOS>BOND
     1    11    12    1
     2    12    13    1
     3    12    14    1
     4    12    10    1
     5    10     6    1
     6     6     7    2
     7     6     8   am
     8     8     5    1
     9     5    15    1
    10    15    16    1
    11    16    17   ar
    12    17    18    1
    13    17    19   ar
    14    19    20   ar
    15    20    21   ar
    16    21    22   ar
    17    22    23    1
    18     5     1    1
    19     1     2    2
    20     1     3   am
    21     3    24    1
    22    24    25    1
    23    25    26   ar
    24    26    27   ar
    25    27    28   ar
    26    28    29   ar
    27    29    30   ar
    28    30    31   ar
    29    31    32   ar
    30    32    33   ar
    31    33    34    1
    32    34    37    1
    33    37    38   ar
    34    38    39   ar
    35    39    40   ar
    36    40    41   ar
    37    41    42   ar
    38    34    35    1
    39    35    36    1
    40    22    16   ar
    41    33    25   ar
    42    36    34    1
    43    32    27   ar
    44    42    37   ar
    45     8     9    1
    46     3     4    1
@<TRIPOS>MOLECULE
*****
 42 46 0 0 0
SMALL
GASTEIGER

@<TRIPOS>ATOM
      1 C          61.0672   88.8078   11.7560 C.2     1  UNL1        0.2411
      2 O          60.3864   89.3567   12.2072 O.2     1  UNL1       -0.2733
      3 N          62.4635   89.3119   11.9711 N.am    1  UNL1       -0.2966
      4 H          63.2256   88.8391   11.5651 H       1  UNL1        0.1499
      5 C          60.8322   87.5831   10.9222 C.3     1  UNL1        0.1556
      6 C          62.1401   85.7311   12.1908 C.2     1  UNL1        0.4017
      7 O          63.3655   86.5963   12.1905 O.2     1  UNL1       -0.2264
      8 N          60.8734   86.2246   11.5566 N.am    1  UNL1       -0.2637
      9 H          60.0692   85.6568   11.5568 H       1  UNL1        0.1532
     10 O          62.1814   84.3725   12.8252 O.3     1  UNL1       -0.4419
     11 C          63.0869   83.6186   11.0613 C.3     1  UNL1        0.0437
     12 C          63.3211   83.4424   12.5323 C.3     1  UNL1        0.1378
     13 C          63.5553   83.2661   14.0034 C.3     1  UNL1        0.0437
     14 C          64.4608   82.5121   12.2394 C.3     1  UNL1        0.0437
     15 C          60.5559   87.7172    9.4539 C.3     1  UNL1        0.0600
     16 C          60.9998   86.6426    8.5061 C.ar    1  UNL1        0.0348
     17 C          62.4272   86.1817    8.5102 C.ar    1  UNL1        0.1384
     18 F          63.1541   86.5103    9.0865 F       1  UNL1       -0.2044
     19 C          62.8710   85.1071    7.5624 C.ar    1  UNL1        0.0295
     20 C          61.8874   84.4936    6.6104 C.ar    1  UNL1        0.0046
     21 C          60.4600   84.9546    6.6064 C.ar    1  UNL1        0.0295
     22 C          60.0162   86.0291    7.5542 C.ar    1  UNL1        0.1384
     23 F          58.5888   86.4901    7.5501 F       1  UNL1       -0.2044
     24 C          62.6985   90.5365   12.8049 C.3     1  UNL1        0.1543
     25 C          64.0968   90.9378   13.1706 C.ar    1  UNL1        0.1417
     26 N          65.1877   91.3077   12.2098 N.ar    1  UNL1       -0.2276
     27 C          66.4149   91.6382   13.0067 C.ar    1  UNL1        0.1167
     28 C          67.7921   92.0685   12.5967 C.ar    1  UNL1        0.0238
     29 C          68.8367   92.3332   13.6401 C.ar    1  UNL1        0.0223
     30 C          68.5042   92.1676   15.0933 C.ar    1  UNL1        0.1006
     31 N          67.1270   91.7373   15.5033 N.ar    1  UNL1       -0.2252
     32 C          66.0823   91.4726   14.4600 C.ar    1  UNL1        0.1626
     33 N          64.6497   91.0397   14.5612 N.ar    1  UNL1       -0.2990
     34 C          63.9014   90.7582   15.8304 C.3     1  UNL1        0.0898
     35 C          63.1569   90.9976   17.1104 C.3     1  UNL1        0.0273
     36 C          63.6525   92.1602   16.3025 C.3     1  UNL1        0.0273
     37 C          63.8902   89.2586   15.7991 C.ar    1  UNL1       -0.0037
     38 C          63.1020   88.4931   16.8201 C.ar    1  UNL1       -0.0025
     39 C          63.0908   86.9934   16.7889 C.ar    1  UNL1       -0.0003
     40 C          63.8680   86.2594   15.7366 C.ar    1  UNL1       -0.0000
     41 C          64.6563   87.0251   14.7155 C.ar    1  UNL1       -0.0003
     42 C          64.6674   88.5247   14.7468 C.ar    1  UNL1       -0.0025
@<TRIPOS>BOND
     1    11    12    1
     2    12    13    1
     3    12    14    1
     4    12    10    1
     5    10     6    1
     6     6     7    2
     7     6     8   am
     8     8     5    1
     9     5    15    1
    10    15    16    1
    11    16    17   ar
    12    17    18    1
    13    17    19   ar
    14    19    20   ar
    15    20    21   ar
    16    21    22   ar
    17    22    23    1
    18     5     1    1
    19     1     2    2
    20     1     3   am
    21     3    24    1
    22    24    25    1
    23    25    26   ar
    24    26    27   ar
    25    27    28   ar
    26    28    29   ar
    27    29    30   ar
    28    30    31   ar
    29    31    32   ar
    30    32    33   ar
    31    33    34    1
    32    34    37    1
    33    37    38   ar
    34    38    39   ar
    35    39    40   ar
    36    40    41   ar
    37    41    42   ar
    38    34    35    1
    39    35    36    1
    40    22    16   ar
    41    33    25   ar
    42    36    34    1
    43    32    27   ar
    44    42    37   ar
    45     8     9    1
    46     3     4    1
@<TRIPOS>MOLECULE
*****
 42 46 0 0 0
SMALL
GASTEIGER

@<TRIPOS>ATOM
      1 C          62.8061   90.1489   12.1897 C.2     1  UNL1        0.2411
      2 O          62.6898   90.7611   12.9513 O.2     1  UNL1       -0.2733
      3 N          63.7069   90.7020   11.1254 N.am    1  UNL1       -0.2966
      4 H          63.8946   90.1738   10.3161 H       1  UNL1        0.1499
      5 C          62.1914   88.7910   12.0208 C.3     1  UNL1        0.1556
      6 C          63.6726   87.3869   13.6285 C.2     1  UNL1        0.4017
      7 O          63.5296   88.4438   14.6833 O.2     1  UNL1       -0.2264
      8 N          63.0034   87.5605   12.2973 N.am    1  UNL1       -0.2637
      9 H          63.0972   86.8668   11.6050 H       1  UNL1        0.1532
     10 O          64.4846   86.1564   13.9050 O.3     1  UNL1       -0.4419
     11 C          63.9267   85.4744   15.8346 C.3     1  UNL1        0.0437
     12 C          63.8196   84.9243   14.4433 C.3     1  UNL1        0.1378
     13 C          63.7126   84.3742   13.0520 C.3     1  UNL1        0.0437
     14 C          63.1547   83.6922   14.9817 C.3     1  UNL1        0.0437
     15 C          60.7647   88.6637   11.5755 C.3     1  UNL1        0.0600
     16 C          60.4512   88.1630   10.1967 C.ar    1  UNL1        0.0348
     17 C          60.6063   86.7062    9.8745 C.ar    1  UNL1        0.1384
     18 F          60.9041   85.9932   10.4840 F       1  UNL1       -0.2044
     19 C          60.2928   86.2056    8.4958 C.ar    1  UNL1        0.0295
     20 C          59.8242   87.1616    7.4392 C.ar    1  UNL1        0.0046
     21 C          59.6692   88.6184    7.7614 C.ar    1  UNL1        0.0295
     22 C          59.9826   89.1190    9.1401 C.ar    1  UNL1        0.1384
     23 F          59.8276   90.5758    9.4623 F       1  UNL1       -0.2044
     24 C          64.3215   92.0597   11.2942 C.3     1  UNL1        0.1543
     25 C          65.2719   92.3174   12.4258 C.ar    1  UNL1        0.1417
     26 N          65.4270   91.4739   13.6564 N.ar    1  UNL1       -0.2276
     27 C          66.4850   92.0989   14.5165 C.ar    1  UNL1        0.1167
     28 C          67.0586   91.7071   15.8460 C.ar    1  UNL1        0.0238
     29 C          68.1311   92.5451   16.4764 C.ar    1  UNL1        0.0223
     30 C          68.6300   93.7749   15.7773 C.ar    1  UNL1        0.1006
     31 N          68.0564   94.1667   14.4479 N.ar    1  UNL1       -0.2252
     32 C          66.9839   93.3287   13.8175 C.ar    1  UNL1        0.1626
     33 N          66.2342   93.4637   12.5254 N.ar    1  UNL1       -0.2990
     34 C          66.4150   94.5538   11.5109 C.3     1  UNL1        0.0898
     35 C          66.3259   95.9021   10.8596 C.3     1  UNL1        0.0273
     36 C          65.7009   95.6761   12.2043 C.3     1  UNL1        0.0273
     37 C          67.1918   93.8102   10.4652 C.ar    1  UNL1       -0.0037
     38 C          67.7066   92.4310   10.7526 C.ar    1  UNL1       -0.0025
     39 C          68.4835   91.6873    9.7069 C.ar    1  UNL1       -0.0003
     40 C          68.7454   92.3230    8.3737 C.ar    1  UNL1       -0.0000
     41 C          68.2306   93.7023    8.0863 C.ar    1  UNL1       -0.0003
     42 C          67.4538   94.4459    9.1320 C.ar    1  UNL1       -0.0025
@<TRIPOS>BOND
     1    11    12    1
     2    12    13    1
     3    12    14    1
     4    12    10    1
     5    10     6    1
     6     6     7    2
     7     6     8   am
     8     8     5    1
     9     5    15    1
    10    15    16    1
    11    16    17   ar
    12    17    18    1
    13    17    19   ar
    14    19    20   ar
    15    20    21   ar
    16    21    22   ar
    17    22    23    1
    18     5     1    1
    19     1     2    2
    20     1     3   am
    21     3    24    1
    22    24    25    1
    23    25    26   ar
    24    26    27   ar
    25    27    28   ar
    26    28    29   ar
    27    29    30   ar
    28    30    31   ar
    29    31    32   ar
    30    32    33   ar
    31    33    34    1
    32    34    37    1
    33    37    38   ar
    34    38    39   ar
    35    39    40   ar
    36    40    41   ar
    37    41    42   ar
    38    34    35    1
    39    35    36    1
    40    22    16   ar
    41    33    25   ar
    42    36    34    1
    43    32    27   ar
    44    42    37   ar
    45     8     9    1
    46     3     4    1
@<TRIPOS>MOLECULE
*****
 42 46 0 0 0
SMALL
GASTEIGER

@<TRIPOS>ATOM
      1 C          60.8963   87.9835   10.0643 C.2     1  UNL1        0.2411
      2 O          60.3042   87.5298   10.7063 O.2     1  UNL1       -0.2733
      3 N          62.0234   87.1142    9.5911 N.am    1  UNL1       -0.2966
      4 H          62.6786   87.4656    8.9458 H       1  UNL1        0.1499
      5 C          60.7673   89.3882    9.5541 C.3     1  UNL1        0.1556
      6 C          59.3925   88.9466    7.3943 C.2     1  UNL1        0.4017
      7 O          58.5021   88.0078    8.1530 O.2     1  UNL1       -0.2264
      8 N          60.5251   89.6369    8.0948 N.am    1  UNL1       -0.2637
      9 H          61.1096   90.2531    7.5969 H       1  UNL1        0.1532
     10 O          59.1503   89.1953    5.9350 O.3     1  UNL1       -0.4419
     11 C          57.4839   90.4920    5.7310 C.3     1  UNL1        0.0437
     12 C          58.9509   90.5957    5.4359 C.3     1  UNL1        0.1378
     13 C          60.4179   90.6993    5.1407 C.3     1  UNL1        0.0437
     14 C          58.7514   91.9961    4.9367 C.3     1  UNL1        0.0437
     15 C          60.8807   90.5442   10.5032 C.3     1  UNL1        0.0600
     16 C          62.1910   90.8412   11.1703 C.ar    1  UNL1        0.0348
     17 C          63.2792   91.5384   10.4089 C.ar    1  UNL1        0.1384
     18 F          63.2454   91.8449    9.4744 F       1  UNL1       -0.2044
     19 C          64.5894   91.8354   11.0761 C.ar    1  UNL1        0.0295
     20 C          64.8114   91.4352   12.5045 C.ar    1  UNL1        0.0046
     21 C          63.7232   90.7380   13.2659 C.ar    1  UNL1        0.0295
     22 C          62.4130   90.4410   12.5988 C.ar    1  UNL1        0.1384
     23 F          61.3247   89.7438   13.3602 F       1  UNL1       -0.2044
     24 C          62.1524   85.7095   10.1013 C.3     1  UNL1        0.1543
     25 C          62.7627   85.4535   11.4474 C.ar    1  UNL1        0.1417
     26 N          62.8881   86.4491   12.5623 N.ar    1  UNL1       -0.2276
     27 C          63.5576   85.7678   13.7189 C.ar    1  UNL1        0.1167
     28 C          63.9420   86.2544   15.0847 C.ar    1  UNL1        0.0238
     29 C          64.6147   85.3244   16.0504 C.ar    1  UNL1        0.0223
     30 C          64.9030   83.9078   15.6502 C.ar    1  UNL1        0.1006
     31 N          64.5187   83.4213   14.2844 N.ar    1  UNL1       -0.2252
     32 C          63.8460   84.3513   13.3188 C.ar    1  UNL1        0.1626
     33 N          63.3547   84.1570   11.9149 N.ar    1  UNL1       -0.2990
     34 C          63.4403   82.8889   11.1184 C.3     1  UNL1        0.0898
     35 C          63.7593   81.9503    9.9926 C.3     1  UNL1        0.0273
     36 C          64.1419   83.3972    9.8938 C.3     1  UNL1        0.0273
     37 C          62.7686   81.9400   12.0662 C.ar    1  UNL1       -0.0037
     38 C          63.0021   80.4637   11.9406 C.ar    1  UNL1       -0.0025
     39 C          62.3304   79.5148   12.8885 C.ar    1  UNL1       -0.0003
     40 C          61.4252   80.0423   13.9619 C.ar    1  UNL1       -0.0000
     41 C          61.1917   81.5188   14.0875 C.ar    1  UNL1       -0.0003
     42 C          61.8634   82.4676   13.1397 C.ar    1  UNL1       -0.0025
@<TRIPOS>BOND
     1    11    12    1
     2    12    13    1
     3    12    14    1
     4    12    10    1
     5    10     6    1
     6     6     7    2
     7     6     8   am
     8     8     5    1
     9     5    15    1
    10    15    16    1
    11    16    17   ar
    12    17    18    1
    13    17    19   ar
    14    19    20   ar
    15    20    21   ar
    16    21    22   ar
    17    22    23    1
    18     5     1    1
    19     1     2    2
    20     1     3   am
    21     3    24    1
    22    24    25    1
    23    25    26   ar
    24    26    27   ar
    25    27    28   ar
    26    28    29   ar
    27    29    30   ar
    28    30    31   ar
    29    31    32   ar
    30    32    33   ar
    31    33    34    1
    32    34    37    1
    33    37    38   ar
    34    38    39   ar
    35    39    40   ar
    36    40    41   ar
    37    41    42   ar
    38    34    35    1
    39    35    36    1
    40    22    16   ar
    41    33    25   ar
    42    36    34    1
    43    32    27   ar
    44    42    37   ar
    45     8     9    1
    46     3     4    1
@<TRIPOS>MOLECULE
*****
 42 46 0 0 0
SMALL
GASTEIGER

@<TRIPOS>ATOM
      1 C          63.3682   84.4531   12.1755 C.2     1  UNL1        0.2411
      2 O          63.7361   84.8389   11.3483 O.2     1  UNL1       -0.2733
      3 N          62.0304   85.0230   12.5436 N.am    1  UNL1       -0.2966
      4 H          61.5680   84.7094   13.3542 H       1  UNL1        0.1499
      5 C          64.0014   83.4054   13.0425 C.3     1  UNL1        0.1556
      6 C          62.7704   81.1519   12.6476 C.2     1  UNL1        0.4017
      7 O          61.4946   81.7609   13.1491 O.2     1  UNL1       -0.2264
      8 N          64.0238   81.9742   12.5943 N.am    1  UNL1       -0.2637
      9 H          64.8611   81.5745   12.2651 H       1  UNL1        0.1532
     10 O          62.7928   79.7206   12.1994 O.3     1  UNL1       -0.4419
     11 C          63.0647   80.8385   10.4172 C.3     1  UNL1        0.0437
     12 C          62.8193   79.3934   10.7358 C.3     1  UNL1        0.1378
     13 C          62.5738   77.9484   11.0543 C.3     1  UNL1        0.0437
     14 C          62.8458   79.0663    9.2721 C.3     1  UNL1        0.0437
     15 C          64.6122   83.7891   14.3577 C.3     1  UNL1        0.0600
     16 C          63.9753   84.8566   15.1975 C.ar    1  UNL1        0.0348
     17 C          64.5397   86.2463   15.1986 C.ar    1  UNL1        0.1384
     18 F          65.3185   86.5698   14.6914 F       1  UNL1       -0.2044
     19 C          63.9028   87.3137   16.0383 C.ar    1  UNL1        0.0295
     20 C          62.7016   86.9913   16.8769 C.ar    1  UNL1        0.0046
     21 C          62.1373   85.6015   16.8757 C.ar    1  UNL1        0.0295
     22 C          62.7741   84.5342   16.0360 C.ar    1  UNL1        0.1384
     23 F          62.2098   83.1443   16.0348 F       1  UNL1       -0.2044
     24 C          61.3972   86.0706   11.6767 C.3     1  UNL1        0.1543
     25 C          62.0230   87.4291   11.5636 C.ar    1  UNL1        0.1417
     26 N          63.0359   88.0142   12.5026 N.ar    1  UNL1       -0.2276
     27 C          63.3847   89.3878   12.0109 C.ar    1  UNL1        0.1167
     28 C          64.3253   90.4324   12.5344 C.ar    1  UNL1        0.0238
     29 C          64.4686   91.7407   11.8150 C.ar    1  UNL1        0.0223
     30 C          63.6713   92.0045   10.5722 C.ar    1  UNL1        0.1006
     31 N          62.7306   90.9600   10.0487 N.ar    1  UNL1       -0.2252
     32 C          62.5874   89.6516   10.7681 C.ar    1  UNL1        0.1626
     33 N          61.7458   88.4410   10.4917 N.ar    1  UNL1       -0.2990
     34 C          60.7941   88.2722    9.3446 C.3     1  UNL1        0.0898
     35 C          59.6331   88.5210    8.4280 C.3     1  UNL1        0.0273
     36 C          59.8608   89.4162    9.6098 C.3     1  UNL1        0.0273
     37 C          61.3968   87.0695    8.6810 C.ar    1  UNL1       -0.0037
     38 C          60.5512   86.1942    7.8042 C.ar    1  UNL1       -0.0025
     39 C          61.1539   84.9915    7.1406 C.ar    1  UNL1       -0.0003
     40 C          62.6022   84.6643    7.3537 C.ar    1  UNL1       -0.0000
     41 C          63.4478   85.5397    8.2305 C.ar    1  UNL1       -0.0003
     42 C          62.8451   86.7423    8.8941 C.ar    1  UNL1       -0.0025
@<TRIPOS>BOND
     1    11    12    1
     2    12    13    1
     3    12    14    1
     4    12    10    1
     5    10     6    1
     6     6     7    2
     7     6     8   am
     8     8     5    1
     9     5    15    1
    10    15    16    1
    11    16    17   ar
    12    17    18    1
    13    17    19   ar
    14    19    20   ar
    15    20    21   ar
    16    21    22   ar
    17    22    23    1
    18     5     1    1
    19     1     2    2
    20     1     3   am
    21     3    24    1
    22    24    25    1
    23    25    26   ar
    24    26    27   ar
    25    27    28   ar
    26    28    29   ar
    27    29    30   ar
    28    30    31   ar
    29    31    32   ar
    30    32    33   ar
    31    33    34    1
    32    34    37    1
    33    37    38   ar
    34    38    39   ar
    35    39    40   ar
    36    40    41   ar
    37    41    42   ar
    38    34    35    1
    39    35    36    1
    40    22    16   ar
    41    33    25   ar
    42    36    34    1
    43    32    27   ar
    44    42    37   ar
    45     8     9    1
    46     3     4    1
