@<TRIPOS>MOLECULE
*****
 45 49 0 0 0
SMALL
GASTEIGER

@<TRIPOS>ATOM
      1 N          61.3850   88.3771   10.8457 N.am    1  UNL1       -0.2769
      2 C          62.4563   87.3819   11.1801 C.2     1  UNL1        0.2294
      3 O          63.3318   87.5967   12.3789 O.2     1  UNL1       -0.2747
      4 C          62.6521   86.1718   10.3155 C.3     1  UNL1        0.1211
      5 C          62.8237   86.3286    8.8336 C.3     1  UNL1        0.0804
      6 N          63.0196   85.1186    7.9691 N.3     1  UNL1       -0.2969
      7 C          63.0438   83.7517    8.5865 C.3     1  UNL1        0.0714
      8 C          62.8722   83.5949   10.0683 C.3     1  UNL1        0.0490
      9 C          62.6764   84.8050   10.9328 C.3     1  UNL1        0.1224
     10 O          62.4727   85.9165   11.9194 O.3     1  UNL1       -0.3492
     11 C          62.3487   85.3076   13.2846 C.3     1  UNL1        0.1687
     12 C          62.4758   83.8198   13.1419 C.ar    1  UNL1        0.0079
     13 C          62.4333   82.7078   14.1476 C.ar    1  UNL1        0.0299
     14 C          62.5932   81.2850   13.6999 C.ar    1  UNL1        0.1671
     15 F          62.5507   80.1730   14.7056 F       1  UNL1       -0.2018
     16 C          62.7957   80.9744   12.2465 C.ar    1  UNL1        0.1671
     17 F          62.9556   79.5518   11.7988 F       1  UNL1       -0.2018
     18 C          62.8382   82.0865   11.2407 C.ar    1  UNL1        0.0297
     19 C          62.6783   83.5091   11.6884 C.ar    1  UNL1        0.0033
     20 H          63.9113   85.2408    7.4892 H       1  UNL1        0.1233
     21 C          60.5095   88.1622    9.6467 C.3     1  UNL1        0.0758
     22 C          59.5105   87.3286    8.9003 C.3     1  UNL1        0.0215
     23 C          59.9921   88.6237    8.3166 C.3     1  UNL1        0.0215
     24 C          61.1891   89.5871   11.7102 C.3     1  UNL1        0.1209
     25 C          63.8846   90.9390   14.2903 C.ar    1  UNL1       -0.0226
     26 C          64.7577   91.7570   13.3856 C.ar    1  UNL1       -0.0077
     27 C          64.4413   91.8518   11.9223 C.ar    1  UNL1       -0.0121
     28 C          63.2517   91.1285   11.3639 C.ar    1  UNL1        0.0513
     29 CL         62.9353   91.2232    9.9007 Cl      1  UNL1       -0.0828
     30 C          62.3786   90.3104   12.2687 C.ar    1  UNL1        0.0076
     31 C          62.6951   90.2157   13.7318 C.ar    1  UNL1       -0.0061
     32 C          64.2010   90.8442   15.7535 C.3     1  UNL1        0.0289
     33 C          63.3854   89.9513   16.6409 C.3     1  UNL1        0.0367
     34 C          63.3993   88.4667   16.4276 C.3     1  UNL1        0.1426
     35 C          62.6319   86.4953   17.9358 C.3     1  UNL1        0.1741
     36 O          62.3017   87.6169   16.9962 O.3     1  UNL1       -0.3511
     37 C          65.3143   92.6698   11.0176 C.3     1  UNL1        0.0287
     38 C          66.7761   92.3547   10.9001 C.3     1  UNL1        0.0235
     39 C          67.5829   92.9446    9.7815 C.3     1  UNL1        0.0914
     40 N          67.9849   94.3890    9.8273 N.3     1  UNL1       -0.1833
     41 H          68.8615   94.4671    9.3117 H       1  UNL1        0.1484
     42 S          67.0659   95.4410    9.2810 S.O2    1  UNL1        0.0426
     43 C          66.1467   96.4931    8.7347 C.3     1  UNL1        0.1957
     44 O          67.2515   94.8860    7.8999 O.2     1  UNL1       -0.1575
     45 O          66.8802   95.9960   10.6621 O.2     1  UNL1       -0.1575
@<TRIPOS>BOND
     1    35    36    1
     2    36    34    1
     3    34    33    1
     4    33    32    1
     5    32    25    1
     6    25    26   ar
     7    26    27   ar
     8    27    37    1
     9    37    38    1
    10    38    39    1
    11    39    40    1
    12    40    42    1
    13    42    43    1
    14    42    44    2
    15    42    45    2
    16    27    28   ar
    17    28    29    1
    18    28    30   ar
    19    30    24    1
    20    24     1    1
    21     1     2   am
    22     2     3    2
    23     4     2    1
    24     4     5    1
    25     5     6    1
    26     6     7    1
    27     7     8    1
    28     9     8    1
    29     9    10    1
    30    10    11    1
    31    11    12    1
    32    12    13   ar
    33    13    14   ar
    34    14    15    1
    35    14    16   ar
    36    16    17    1
    37    16    18   ar
    38    18    19   ar
    39     1    21    1
    40    21    22    1
    41    22    23    1
    42    30    31   ar
    43    31    25   ar
    44     9     4    1
    45    19    12   ar
    46    23    21    1
    47    19     9    1
    48    40    41    1
    49     6    20    1
@<TRIPOS>MOLECULE
*****
 45 49 0 0 0
SMALL
GASTEIGER

@<TRIPOS>ATOM
      1 N          61.3190   88.3341   10.8021 N.am    1  UNL1       -0.2769
      2 C          62.4208   87.3669   11.1191 C.2     1  UNL1        0.2294
      3 O          63.3028   87.5989   12.3100 O.2     1  UNL1       -0.2747
      4 C          62.6407   86.1677   10.2452 C.3     1  UNL1        0.1211
      5 C          62.8292   86.3412    8.7673 C.3     1  UNL1        0.0804
      6 N          63.0491   85.1420    7.8935 N.3     1  UNL1       -0.2969
      7 C          63.0805   83.7694    8.4976 C.3     1  UNL1        0.0714
      8 C          62.8919   83.5959    9.9755 C.3     1  UNL1        0.0490
      9 C          62.6721   84.7951   10.8493 C.3     1  UNL1        0.1224
     10 O          62.4439   85.8944   11.8441 O.3     1  UNL1       -0.3492
     11 C          62.3094   85.2707   13.2016 C.3     1  UNL1        0.1687
     12 C          62.4545   83.7858   13.0459 C.ar    1  UNL1        0.0079
     13 C          62.4114   82.6634   14.0400 C.ar    1  UNL1        0.0299
     14 C          62.5925   81.2470   13.5804 C.ar    1  UNL1        0.1671
     15 F          62.5495   80.1247   14.5745 F       1  UNL1       -0.2018
     16 C          62.8166   80.9532   12.1267 C.ar    1  UNL1        0.1671
     17 F          62.9977   79.5369   11.6670 F       1  UNL1       -0.2018
     18 C          62.8597   82.0756   11.1324 C.ar    1  UNL1        0.0297
     19 C          62.6786   83.4919   11.5921 C.ar    1  UNL1        0.0033
     20 H          63.9454   85.2786    7.4261 H       1  UNL1        0.1233
     21 C          60.4370   88.1020    9.6111 C.3     1  UNL1        0.0758
     22 C          59.4645   87.2388    8.8633 C.3     1  UNL1        0.0215
     23 C          59.8819   88.5633    8.2962 C.3     1  UNL1        0.0215
     24 C          61.0991   89.5332   11.6759 C.3     1  UNL1        0.1209
     25 C          63.5700   90.5220   14.6198 C.ar    1  UNL1       -0.0226
     26 C          64.5614   91.3737   13.8838 C.ar    1  UNL1       -0.0077
     27 C          64.3987   91.6120   12.4118 C.ar    1  UNL1       -0.0121
     28 C          63.2446   90.9985   11.6758 C.ar    1  UNL1        0.0513
     29 CL         63.0818   91.2367   10.2039 Cl      1  UNL1       -0.0828
     30 C          62.2532   90.1467   12.4119 C.ar    1  UNL1        0.0076
     31 C          62.4159   89.9085   13.8838 C.ar    1  UNL1       -0.0061
     32 C          63.7327   90.2837   16.0919 C.3     1  UNL1        0.0289
     33 C          62.7696   89.3923   16.8183 C.3     1  UNL1        0.0367
     34 C          63.1692   87.9922   17.1787 C.3     1  UNL1        0.1426
     35 C          63.6428   85.5422   16.4554 C.3     1  UNL1        0.1741
     36 O          63.4182   86.9817   16.0985 O.3     1  UNL1       -0.3511
     37 C          65.3900   92.4637   11.6758 C.3     1  UNL1        0.0287
     38 C          66.6462   92.9142   12.3607 C.3     1  UNL1        0.0235
     39 C          67.7023   91.9131   12.7248 C.3     1  UNL1        0.0914
     40 N          67.9958   91.6235   14.1670 N.3     1  UNL1       -0.1833
     41 H          68.7481   90.9348   14.1818 H       1  UNL1        0.1484
     42 S          68.4079   92.7348   15.0863 S.O2    1  UNL1        0.0426
     43 C          68.8199   93.8461   16.0057 C.3     1  UNL1        0.1957
     44 O          69.7421   92.8041   14.4045 O.2     1  UNL1       -0.1575
     45 O          67.0737   92.6654   15.7682 O.2     1  UNL1       -0.1575
@<TRIPOS>BOND
     1    35    36    1
     2    36    34    1
     3    34    33    1
     4    33    32    1
     5    32    25    1
     6    25    26   ar
     7    26    27   ar
     8    27    37    1
     9    37    38    1
    10    38    39    1
    11    39    40    1
    12    40    42    1
    13    42    43    1
    14    42    44    2
    15    42    45    2
    16    27    28   ar
    17    28    29    1
    18    28    30   ar
    19    30    24    1
    20    24     1    1
    21     1     2   am
    22     2     3    2
    23     4     2    1
    24     4     5    1
    25     5     6    1
    26     6     7    1
    27     7     8    1
    28     9     8    1
    29     9    10    1
    30    10    11    1
    31    11    12    1
    32    12    13   ar
    33    13    14   ar
    34    14    15    1
    35    14    16   ar
    36    16    17    1
    37    16    18   ar
    38    18    19   ar
    39     1    21    1
    40    21    22    1
    41    22    23    1
    42    30    31   ar
    43    31    25   ar
    44     9     4    1
    45    19    12   ar
    46    23    21    1
    47    19     9    1
    48    40    41    1
    49     6    20    1
@<TRIPOS>MOLECULE
*****
 45 49 0 0 0
SMALL
GASTEIGER

@<TRIPOS>ATOM
      1 N          61.6513   90.2471   11.3140 N.am    1  UNL1       -0.2769
      2 C          62.4242   89.3939   10.3524 C.2     1  UNL1        0.2294
      3 O          63.8037   89.8027    9.9284 O.2     1  UNL1       -0.2747
      4 C          61.8175   88.1317    9.8147 C.3     1  UNL1        0.1211
      5 C          60.9686   88.1749    8.5788 C.3     1  UNL1        0.0804
      6 N          60.3620   86.9128    8.0412 N.3     1  UNL1       -0.2969
      7 C          60.6042   85.6075    8.7396 C.3     1  UNL1        0.0714
      8 C          61.4530   85.5644    9.9755 C.3     1  UNL1        0.0490
      9 C          62.0597   86.8265   10.5131 C.3     1  UNL1        0.1224
     10 O          62.7289   88.0003   11.1645 O.3     1  UNL1       -0.3492
     11 C          63.4712   87.5013   12.3686 C.3     1  UNL1        0.1687
     12 C          63.2608   86.0190   12.4615 C.ar    1  UNL1        0.0079
     13 C          63.7508   84.9952   13.4420 C.ar    1  UNL1        0.0299
     14 C          63.3685   83.5542   13.2758 C.ar    1  UNL1        0.1671
     15 F          63.8585   82.5304   14.2564 F       1  UNL1       -0.2018
     16 C          62.4962   83.1372   12.1291 C.ar    1  UNL1        0.1671
     17 F          62.1138   81.6963   11.9629 F       1  UNL1       -0.2018
     18 C          62.0061   84.1611   11.1484 C.ar    1  UNL1        0.0297
     19 C          62.3884   85.6019   11.3146 C.ar    1  UNL1        0.0033
     20 H          60.7053   86.8043    7.0869 H       1  UNL1        0.1233
     21 C          60.2717   89.8382   11.7379 C.3     1  UNL1        0.0758
     22 C          58.8154   90.1573   11.9029 C.3     1  UNL1        0.0215
     23 C          59.3387   88.8109   12.3071 C.3     1  UNL1        0.0215
     24 C          62.2579   91.5092   11.8516 C.3     1  UNL1        0.1209
     25 C          64.2074   90.7233   15.2179 C.ar    1  UNL1       -0.0226
     26 C          65.5574   91.2970   14.9042 C.ar    1  UNL1       -0.0077
     27 C          65.8075   91.9415   13.5730 C.ar    1  UNL1       -0.0121
     28 C          64.7077   92.0123   12.5555 C.ar    1  UNL1        0.0513
     29 CL         64.9579   92.6567   11.2243 Cl      1  UNL1       -0.0828
     30 C          63.3577   91.4385   12.8691 C.ar    1  UNL1        0.0076
     31 C          63.1076   90.7940   14.2003 C.ar    1  UNL1       -0.0061
     32 C          63.9572   90.0788   16.5491 C.3     1  UNL1        0.0289
     33 C          62.8264   89.1067   16.7110 C.3     1  UNL1        0.0367
     34 C          63.0931   87.7262   17.2335 C.3     1  UNL1        0.1426
     35 C          62.2203   85.3478   16.6580 C.3     1  UNL1        0.1741
     36 O          61.9936   86.7060   17.2526 O.3     1  UNL1       -0.3511
     37 C          67.1575   92.5153   13.2594 C.3     1  UNL1        0.0287
     38 C          68.1672   91.6931   12.5148 C.3     1  UNL1        0.0235
     39 C          68.1479   91.6590   11.0153 C.3     1  UNL1        0.0914
     40 N          68.8717   92.7135   10.2317 N.3     1  UNL1       -0.1833
     41 H          69.6213   92.2419    9.7258 H       1  UNL1        0.1484
     42 S          68.1285   93.5448    9.2284 S.O2    1  UNL1        0.0426
     43 C          67.3853   94.3762    8.2251 C.3     1  UNL1        0.1957
     44 O          67.7014   94.4806   10.3202 O.2     1  UNL1       -0.1575
     45 O          68.5556   92.6091    8.1367 O.2     1  UNL1       -0.1575
@<TRIPOS>BOND
     1    35    36    1
     2    36    34    1
     3    34    33    1
     4    33    32    1
     5    32    25    1
     6    25    26   ar
     7    26    27   ar
     8    27    37    1
     9    37    38    1
    10    38    39    1
    11    39    40    1
    12    40    42    1
    13    42    43    1
    14    42    44    2
    15    42    45    2
    16    27    28   ar
    17    28    29    1
    18    28    30   ar
    19    30    24    1
    20    24     1    1
    21     1     2   am
    22     2     3    2
    23     4     2    1
    24     4     5    1
    25     5     6    1
    26     6     7    1
    27     7     8    1
    28     9     8    1
    29     9    10    1
    30    10    11    1
    31    11    12    1
    32    12    13   ar
    33    13    14   ar
    34    14    15    1
    35    14    16   ar
    36    16    17    1
    37    16    18   ar
    38    18    19   ar
    39     1    21    1
    40    21    22    1
    41    22    23    1
    42    30    31   ar
    43    31    25   ar
    44     9     4    1
    45    19    12   ar
    46    23    21    1
    47    19     9    1
    48    40    41    1
    49     6    20    1
@<TRIPOS>MOLECULE
*****
 45 49 0 0 0
SMALL
GASTEIGER

@<TRIPOS>ATOM
      1 N          61.5086   88.3386   11.0535 N.am    1  UNL1       -0.2769
      2 C          62.5561   87.2975   11.3160 C.2     1  UNL1        0.2294
      3 O          63.4658   87.4310   12.5011 O.2     1  UNL1       -0.2747
      4 C          62.6937   86.1227   10.3934 C.3     1  UNL1        0.1211
      5 C          62.8151   86.3408    8.9144 C.3     1  UNL1        0.0804
      6 N          62.9527   85.1661    7.9919 N.3     1  UNL1       -0.2969
      7 C          62.9689   83.7733    8.5484 C.3     1  UNL1        0.0714
      8 C          62.8474   83.5552   10.0275 C.3     1  UNL1        0.0490
      9 C          62.7098   84.7299   10.9500 C.3     1  UNL1        0.1224
     10 O          62.5666   85.8010   11.9904 O.3     1  UNL1       -0.3492
     11 C          62.4785   85.1355   13.3318 C.3     1  UNL1        0.1687
     12 C          62.5673   83.6530   13.1205 C.ar    1  UNL1        0.0079
     13 C          62.5365   82.4991   14.0782 C.ar    1  UNL1        0.0299
     14 C          62.6486   81.0944   13.5640 C.ar    1  UNL1        0.1671
     15 F          62.6177   79.9404   14.5218 F       1  UNL1       -0.2018
     16 C          62.7915   80.8438   12.0921 C.ar    1  UNL1        0.1671
     17 F          62.9036   79.4391   11.5778 F       1  UNL1       -0.2018
     18 C          62.8224   81.9978   11.1342 C.ar    1  UNL1        0.0297
     19 C          62.7103   83.4024   11.6484 C.ar    1  UNL1        0.0033
     20 H          63.8290   85.2909    7.4850 H       1  UNL1        0.1233
     21 C          60.5988   88.2050    9.8684 C.3     1  UNL1        0.0758
     22 C          59.5785   87.4228    9.0956 C.3     1  UNL1        0.0215
     23 C          60.0433   88.7557    8.5885 C.3     1  UNL1        0.0215
     24 C          61.3710   89.5133   11.9760 C.3     1  UNL1        0.1209
     25 C          64.5248   91.9078   11.7117 C.ar    1  UNL1       -0.0226
     26 C          65.0039   91.9034   13.1330 C.ar    1  UNL1       -0.0077
     27 C          64.2721   91.1024   14.1688 C.ar    1  UNL1       -0.0121
     28 C          63.0611   90.3057   13.7831 C.ar    1  UNL1        0.0513
     29 CL         62.3293   89.5046   14.8188 Cl      1  UNL1       -0.0828
     30 C          62.5820   90.3100   12.3617 C.ar    1  UNL1        0.0076
     31 C          63.3138   91.1110   11.3260 C.ar    1  UNL1       -0.0061
     32 C          65.2566   92.7088   10.6759 C.3     1  UNL1        0.0289
     33 C          66.7137   92.4566   10.4242 C.3     1  UNL1        0.0367
     34 C          67.5087   93.4189    9.5924 C.3     1  UNL1        0.1426
     35 C          66.6667   95.8690    9.7879 C.3     1  UNL1        0.1741
     36 O          67.7112   94.8284   10.0640 O.3     1  UNL1       -0.3511
     37 C          64.7513   91.0981   15.5902 C.3     1  UNL1        0.0287
     38 C          65.0576   92.3931   16.2823 C.3     1  UNL1        0.0235
     39 C          66.4784   92.7588   16.5947 C.3     1  UNL1        0.0914
     40 N          67.2994   93.5066   15.5864 N.3     1  UNL1       -0.1833
     41 H          67.7362   94.2845   16.0810 H       1  UNL1        0.1484
     42 S          68.3913   92.8021   14.8373 S.O2    1  UNL1        0.0426
     43 C          69.4833   92.0974   14.0881 C.3     1  UNL1        0.1957
     44 O          67.7316   93.1605   13.5387 O.2     1  UNL1       -0.1575
     45 O          69.0510   92.4436   16.1358 O.2     1  UNL1       -0.1575
@<TRIPOS>BOND
     1    35    36    1
     2    36    34    1
     3    34    33    1
     4    33    32    1
     5    32    25    1
     6    25    26   ar
     7    26    27   ar
     8    27    37    1
     9    37    38    1
    10    38    39    1
    11    39    40    1
    12    40    42    1
    13    42    43    1
    14    42    44    2
    15    42    45    2
    16    27    28   ar
    17    28    29    1
    18    28    30   ar
    19    30    24    1
    20    24     1    1
    21     1     2   am
    22     2     3    2
    23     4     2    1
    24     4     5    1
    25     5     6    1
    26     6     7    1
    27     7     8    1
    28     9     8    1
    29     9    10    1
    30    10    11    1
    31    11    12    1
    32    12    13   ar
    33    13    14   ar
    34    14    15    1
    35    14    16   ar
    36    16    17    1
    37    16    18   ar
    38    18    19   ar
    39     1    21    1
    40    21    22    1
    41    22    23    1
    42    30    31   ar
    43    31    25   ar
    44     9     4    1
    45    19    12   ar
    46    23    21    1
    47    19     9    1
    48    40    41    1
    49     6    20    1
@<TRIPOS>MOLECULE
*****
 45 49 0 0 0
SMALL
GASTEIGER

@<TRIPOS>ATOM
      1 N          61.5641   87.9371   11.0905 N.am    1  UNL1       -0.2769
      2 C          62.8025   88.5578   11.6660 C.2     1  UNL1        0.2294
      3 O          63.6053   87.8159   12.6931 O.2     1  UNL1       -0.2747
      4 C          63.2380   89.9202   11.2142 C.3     1  UNL1        0.1211
      5 C          62.8344   90.4264    9.8612 C.3     1  UNL1        0.0804
      6 N          63.2699   91.7888    9.4095 N.3     1  UNL1       -0.2969
      7 C          64.1092   92.6451   10.3109 C.3     1  UNL1        0.0714
      8 C          64.5128   92.1389   11.6639 C.3     1  UNL1        0.0490
      9 C          64.0773   90.7765   12.1156 C.3     1  UNL1        0.1224
     10 O          63.7191   89.4426   12.7010 O.3     1  UNL1       -0.3492
     11 C          64.3305   89.3570   14.0680 C.3     1  UNL1        0.1687
     12 C          65.0665   90.6380   14.3277 C.ar    1  UNL1        0.0079
     13 C          65.8589   91.1190   15.5069 C.ar    1  UNL1        0.0299
     14 C          66.4950   92.4773   15.4796 C.ar    1  UNL1        0.1671
     15 F          67.2874   92.9582   16.6588 F       1  UNL1       -0.2018
     16 C          66.3385   93.3545   14.2729 C.ar    1  UNL1        0.1671
     17 F          66.9744   94.7127   14.2455 F       1  UNL1       -0.2018
     18 C          65.5460   92.8735   13.0936 C.ar    1  UNL1        0.0297
     19 C          64.9100   91.5153   13.1210 C.ar    1  UNL1        0.0033
     20 H          62.4212   92.3174    9.2076 H       1  UNL1        0.1233
     21 C          60.7612   88.6790   10.0633 C.3     1  UNL1        0.0758
     22 C          59.9039   89.8491    9.6814 C.3     1  UNL1        0.0215
     23 C          60.2280   88.7938    8.6660 C.3     1  UNL1        0.0215
     24 C          61.1285   86.5747   11.5422 C.3     1  UNL1        0.1209
     25 C          63.4360   84.4451   13.9692 C.ar    1  UNL1       -0.0226
     26 C          64.1816   83.5984   12.9808 C.ar    1  UNL1       -0.0077
     27 C          63.9096   83.7437   11.5128 C.ar    1  UNL1       -0.0121
     28 C          62.8919   84.7358   11.0332 C.ar    1  UNL1        0.0513
     29 CL         62.6199   84.8812    9.5653 Cl      1  UNL1       -0.0828
     30 C          62.1462   85.5826   12.0217 C.ar    1  UNL1        0.0076
     31 C          62.4182   85.4372   13.4896 C.ar    1  UNL1       -0.0061
     32 C          63.7080   84.2997   15.4372 C.3     1  UNL1        0.0289
     33 C          63.8913   85.5198   16.2904 C.3     1  UNL1        0.0367
     34 C          62.7778   85.9869   17.1802 C.3     1  UNL1        0.1426
     35 C          63.0459   88.5700   17.1076 C.3     1  UNL1        0.1741
     36 O          62.1825   87.3497   16.9842 O.3     1  UNL1       -0.3511
     37 C          64.6553   82.8970   10.5244 C.3     1  UNL1        0.0287
     38 C          64.0796   81.5871   10.0741 C.3     1  UNL1        0.0235
     39 C          62.8804   81.0157   10.7709 C.3     1  UNL1        0.0914
     40 N          63.0438   80.2970   12.0773 N.3     1  UNL1       -0.1833
     41 H          64.0406   80.3023   12.2936 H       1  UNL1        0.1484
     42 S          62.3325   80.7940   13.3008 S.O2    1  UNL1        0.0426
     43 C          61.6212   81.2909   14.5244 C.3     1  UNL1        0.1957
     44 O          61.4513   81.6503   12.4406 O.2     1  UNL1       -0.1575
     45 O          63.2138   79.9376   14.1610 O.2     1  UNL1       -0.1575
@<TRIPOS>BOND
     1    35    36    1
     2    36    34    1
     3    34    33    1
     4    33    32    1
     5    32    25    1
     6    25    26   ar
     7    26    27   ar
     8    27    37    1
     9    37    38    1
    10    38    39    1
    11    39    40    1
    12    40    42    1
    13    42    43    1
    14    42    44    2
    15    42    45    2
    16    27    28   ar
    17    28    29    1
    18    28    30   ar
    19    30    24    1
    20    24     1    1
    21     1     2   am
    22     2     3    2
    23     4     2    1
    24     4     5    1
    25     5     6    1
    26     6     7    1
    27     7     8    1
    28     9     8    1
    29     9    10    1
    30    10    11    1
    31    11    12    1
    32    12    13   ar
    33    13    14   ar
    34    14    15    1
    35    14    16   ar
    36    16    17    1
    37    16    18   ar
    38    18    19   ar
    39     1    21    1
    40    21    22    1
    41    22    23    1
    42    30    31   ar
    43    31    25   ar
    44     9     4    1
    45    19    12   ar
    46    23    21    1
    47    19     9    1
    48    40    41    1
    49     6    20    1
@<TRIPOS>MOLECULE
*****
 45 49 0 0 0
SMALL
GASTEIGER

@<TRIPOS>ATOM
      1 N          61.3458   90.1241   11.1066 N.am    1  UNL1       -0.2769
      2 C          62.1323   89.3384   10.0996 C.2     1  UNL1        0.2294
      3 O          63.4681   89.8387    9.6355 O.2     1  UNL1       -0.2747
      4 C          61.5831   88.0525    9.5568 C.3     1  UNL1        0.1211
      5 C          60.7111   88.0652    8.3364 C.3     1  UNL1        0.0804
      6 N          60.1619   86.7793    7.7936 N.3     1  UNL1       -0.2969
      7 C          60.4847   85.4806    8.4712 C.3     1  UNL1        0.0714
      8 C          61.3567   85.4678    9.6915 C.3     1  UNL1        0.0490
      9 C          61.9059   86.7537   10.2343 C.3     1  UNL1        0.1224
     10 O          62.5243   87.9535   10.8888 O.3     1  UNL1       -0.3492
     11 C          63.3132   87.4803   12.0735 C.3     1  UNL1        0.1687
     12 C          63.1825   85.9880   12.1513 C.ar    1  UNL1        0.0079
     13 C          63.7431   84.9800   13.1103 C.ar    1  UNL1        0.0299
     14 C          63.4339   83.5229   12.9327 C.ar    1  UNL1        0.1671
     15 F          63.9944   82.5150   13.8916 F       1  UNL1       -0.2018
     16 C          62.5641   83.0740   11.7960 C.ar    1  UNL1        0.1671
     17 F          62.2550   81.6170   11.6184 F       1  UNL1       -0.2018
     18 C          62.0035   84.0820   10.8370 C.ar    1  UNL1        0.0297
     19 C          62.3127   85.5389   11.0146 C.ar    1  UNL1        0.0033
     20 H          60.4932   86.7001    6.8322 H       1  UNL1        0.1233
     21 C          60.0100   89.6238   11.5708 C.3     1  UNL1        0.0758
     22 C          59.0903   88.4835   11.8932 C.3     1  UNL1        0.0215
     23 C          58.6160   89.8976   12.0522 C.3     1  UNL1        0.0215
     24 C          61.8950   91.4100   11.6495 C.3     1  UNL1        0.1209
     25 C          65.6012   92.2240   12.8118 C.ar    1  UNL1       -0.0226
     26 C          65.6962   91.3944   14.0579 C.ar    1  UNL1       -0.0077
     27 C          64.5241   90.5700   14.5012 C.ar    1  UNL1       -0.0121
     28 C          63.2570   90.5752   13.6984 C.ar    1  UNL1        0.0513
     29 CL         62.0849   89.7508   14.1417 Cl      1  UNL1       -0.0828
     30 C          63.1621   91.4048   12.4523 C.ar    1  UNL1        0.0076
     31 C          64.3342   92.2292   12.0090 C.ar    1  UNL1       -0.0061
     32 C          66.7734   93.0485   12.3685 C.3     1  UNL1        0.0289
     33 C          66.5554   94.2688   11.5239 C.3     1  UNL1        0.0367
     34 C          66.8920   94.2395   10.0625 C.3     1  UNL1        0.1426
     35 C          68.7625   92.6409    9.2282 C.3     1  UNL1        0.1741
     36 O          68.3087   94.0148    9.6236 O.3     1  UNL1       -0.3511
     37 C          64.6191   89.7404   15.7473 C.3     1  UNL1        0.0287
     38 C          63.5109   89.7750   16.7575 C.3     1  UNL1        0.0235
     39 C          62.5948   88.5965   16.9065 C.3     1  UNL1        0.0914
     40 N          63.1209   87.3017   17.4512 N.3     1  UNL1       -0.1833
     41 H          62.8492   87.2634   18.4336 H       1  UNL1        0.1484
     42 S          62.6983   86.0016   16.8340 S.O2    1  UNL1        0.0426
     43 C          62.2756   84.7013   16.2168 C.3     1  UNL1        0.1957
     44 O          61.2735   86.2886   17.2050 O.2     1  UNL1       -0.1575
     45 O          64.1230   85.7145   16.4631 O.2     1  UNL1       -0.1575
@<TRIPOS>BOND
     1    35    36    1
     2    36    34    1
     3    34    33    1
     4    33    32    1
     5    32    25    1
     6    25    26   ar
     7    26    27   ar
     8    27    37    1
     9    37    38    1
    10    38    39    1
    11    39    40    1
    12    40    42    1
    13    42    43    1
    14    42    44    2
    15    42    45    2
    16    27    28   ar
    17    28    29    1
    18    28    30   ar
    19    30    24    1
    20    24     1    1
    21     1     2   am
    22     2     3    2
    23     4     2    1
    24     4     5    1
    25     5     6    1
    26     6     7    1
    27     7     8    1
    28     9     8    1
    29     9    10    1
    30    10    11    1
    31    11    12    1
    32    12    13   ar
    33    13    14   ar
    34    14    15    1
    35    14    16   ar
    36    16    17    1
    37    16    18   ar
    38    18    19   ar
    39     1    21    1
    40    21    22    1
    41    22    23    1
    42    30    31   ar
    43    31    25   ar
    44     9     4    1
    45    19    12   ar
    46    23    21    1
    47    19     9    1
    48    40    41    1
    49     6    20    1
@<TRIPOS>MOLECULE
*****
 45 49 0 0 0
SMALL
GASTEIGER

@<TRIPOS>ATOM
      1 N          61.6215   95.3188   -0.8441 N.am    1  UNL1       -0.2769
      2 C          62.2883   95.4481    0.4933 C.2     1  UNL1        0.2294
      3 O          62.3047   96.7719    1.1983 O.2     1  UNL1       -0.2747
      4 C          62.9386   94.2534    1.1258 C.3     1  UNL1        0.1211
      5 C          64.3544   93.8990    0.7794 C.3     1  UNL1        0.0804
      6 N          65.0046   92.7044    1.4118 N.3     1  UNL1       -0.2969
      7 C          64.2391   91.8642    2.3906 C.3     1  UNL1        0.0714
      8 C          62.8234   92.2185    2.7370 C.3     1  UNL1        0.0490
      9 C          62.1731   93.4131    2.1045 C.3     1  UNL1        0.1224
     10 O          61.3947   94.5720    1.5555 O.3     1  UNL1       -0.3492
     11 C          60.0276   94.5460    2.1724 C.3     1  UNL1        0.1687
     12 C          59.9611   93.3711    3.1026 C.ar    1  UNL1        0.0079
     13 C          58.8645   92.8484    3.9824 C.ar    1  UNL1        0.0299
     14 C          59.0938   91.6255    4.8204 C.ar    1  UNL1        0.1671
     15 F          57.9972   91.1028    5.7001 F       1  UNL1       -0.2018
     16 C          60.4197   90.9254    4.7784 C.ar    1  UNL1        0.1671
     17 F          60.6490   89.7026    5.6163 F       1  UNL1       -0.2018
     18 C          61.5164   91.4481    3.8986 C.ar    1  UNL1        0.0297
     19 C          61.2871   92.6710    3.0607 C.ar    1  UNL1        0.0033
     20 H          65.8331   93.0442    1.9003 H       1  UNL1        0.1233
     21 C          61.6051   93.9948   -1.5491 C.3     1  UNL1        0.0758
     22 C          61.1425   92.5700   -1.6267 C.3     1  UNL1        0.0215
     23 C          62.0393   93.1265   -2.6925 C.3     1  UNL1        0.0215
     24 C          60.9712   96.5133   -1.4766 C.3     1  UNL1        0.1209
     25 C          58.8654   96.3478   -4.8364 C.ar    1  UNL1       -0.0226
     26 C          57.5168   95.9596   -4.3069 C.ar    1  UNL1       -0.0077
     27 C          57.3196   95.7560   -2.8338 C.ar    1  UNL1       -0.0121
     28 C          58.4710   95.9405   -1.8904 C.ar    1  UNL1        0.0513
     29 CL         58.2739   95.7369   -0.4175 Cl      1  UNL1       -0.0828
     30 C          59.8197   96.3288   -2.4200 C.ar    1  UNL1        0.0076
     31 C          60.0169   96.5324   -3.8929 C.ar    1  UNL1       -0.0061
     32 C          59.0627   96.5515   -6.3094 C.3     1  UNL1        0.0289
     33 C          59.0724   95.3712   -7.2350 C.3     1  UNL1        0.0367
     34 C          60.3502   94.6277   -7.4890 C.3     1  UNL1        0.1426
     35 C          62.6052   95.0065   -6.2556 C.3     1  UNL1        0.1741
     36 O          61.2763   94.3173   -6.3507 O.3     1  UNL1       -0.3511
     37 C          55.9709   95.3678   -2.3043 C.3     1  UNL1        0.0287
     38 C          55.5689   93.9233   -2.2629 C.3     1  UNL1        0.0235
     39 C          56.5049   92.9004   -1.6904 C.3     1  UNL1        0.0914
     40 N          56.8420   91.6687   -2.4773 N.3     1  UNL1       -0.1833
     41 H          56.0832   91.0045   -2.3241 H       1  UNL1        0.1484
     42 S          57.0457   91.7588   -3.9606 S.O2    1  UNL1        0.0426
     43 C          57.2494   91.8488   -5.4440 C.3     1  UNL1        0.1957
     44 O          58.2917   92.5643   -3.7406 O.2     1  UNL1       -0.1575
     45 O          55.7997   90.9532   -4.1806 O.2     1  UNL1       -0.1575
@<TRIPOS>BOND
     1    35    36    1
     2    36    34    1
     3    34    33    1
     4    33    32    1
     5    32    25    1
     6    25    26   ar
     7    26    27   ar
     8    27    37    1
     9    37    38    1
    10    38    39    1
    11    39    40    1
    12    40    42    1
    13    42    43    1
    14    42    44    2
    15    42    45    2
    16    27    28   ar
    17    28    29    1
    18    28    30   ar
    19    30    24    1
    20    24     1    1
    21     1     2   am
    22     2     3    2
    23     4     2    1
    24     4     5    1
    25     5     6    1
    26     6     7    1
    27     7     8    1
    28     9     8    1
    29     9    10    1
    30    10    11    1
    31    11    12    1
    32    12    13   ar
    33    13    14   ar
    34    14    15    1
    35    14    16   ar
    36    16    17    1
    37    16    18   ar
    38    18    19   ar
    39     1    21    1
    40    21    22    1
    41    22    23    1
    42    30    31   ar
    43    31    25   ar
    44     9     4    1
    45    19    12   ar
    46    23    21    1
    47    19     9    1
    48    40    41    1
    49     6    20    1
