@<TRIPOS>MOLECULE
*****
 34 37 0 0 0
SMALL
GASTEIGER

@<TRIPOS>ATOM
      1 C          61.2155   88.2304    9.7974 C.ar    1  UNL1        0.0951
      2 C          60.3242   88.0197    8.6095 C.ar    1  UNL1        0.1454
      3 F          59.2993   89.0536    8.2481 F       1  UNL1       -0.2040
      4 C          60.4579   86.7751    7.7829 C.ar    1  UNL1        0.0312
      5 C          61.4828   85.7412    8.1443 C.ar    1  UNL1        0.0204
      6 C          62.3741   85.9520    9.3323 C.ar    1  UNL1        0.0924
      7 C          62.2404   87.1965   10.1589 C.ar    1  UNL1        0.1598
      8 F          63.1317   87.4072   11.3468 F       1  UNL1       -0.2026
      9 C          61.0818   89.4749   10.6240 C.2     1  UNL1        0.2036
     10 O          59.7374   89.8883   11.1454 O.2     1  UNL1       -0.2863
     11 C          63.6581   89.9621   14.7279 C.2     1  UNL1        0.0974
     12 C          64.8088   90.9133   14.5834 C.2     1  UNL1        0.2421
     13 N          65.0582   91.5949   13.2706 N.2     1  UNL1       -0.0304
     14 C          64.1569   91.3253   12.1024 C.2     1  UNL1        0.3721
     15 N          64.1545   91.8454   10.6955 N.2     1  UNL1       -0.0307
     16 C          63.0022   91.2155    9.9704 C.2     1  UNL1        0.2390
     17 C          62.2925   90.3062   10.9292 C.2     1  UNL1        0.0896
     18 C          63.0062   90.3740   12.2469 C.2     1  UNL1        0.0782
     19 C          62.7568   89.6924   13.5596 C.3     1  UNL1        0.0751
     20 N          63.1593   88.5989   17.3533 N.1     1  UNL1       -0.1910
     21 C          63.4087   89.2805   16.0406 C.1     1  UNL1        0.1003
     22 N          63.3990   84.9181    9.6937 N.pl3   1  UNL1       -0.2127
     23 H          64.2383   84.8573    9.1827 H       1  UNL1        0.1738
     24 S          63.1452   83.9768   10.8337 S.O2    1  UNL1        0.0780
     25 O          61.7738   84.5584   11.0087 O.2     1  UNL1       -0.1498
     26 O          64.5167   83.3951   10.6587 O.2     1  UNL1       -0.1498
     27 C          62.8915   83.0355   11.9737 C.ar    1  UNL1        0.1797
     28 C          62.7372   83.5694   13.3670 C.ar    1  UNL1        0.1611
     29 F          62.8366   85.0445   13.6203 F       1  UNL1       -0.2027
     30 C          62.4834   82.6281   14.5070 C.ar    1  UNL1        0.0312
     31 C          62.3840   81.1530   14.2538 C.ar    1  UNL1        0.0047
     32 C          62.5384   80.6191   12.8606 C.ar    1  UNL1        0.0312
     33 C          62.7921   81.5604   11.7205 C.ar    1  UNL1        0.1611
     34 F          62.9464   81.0266   10.3273 F       1  UNL1       -0.2027
@<TRIPOS>BOND
     1    20    21    3
     2    21    11    1
     3    11    12    2
     4    12    13    1
     5    13    14    2
     6    14    15    1
     7    15    16    2
     8    16    17    1
     9    17     9    1
    10     9    10    2
    11     9     1    1
    12     1     2   ar
    13     2     3    1
    14     2     4   ar
    15     4     5   ar
    16     5     6   ar
    17     6    22    1
    18    22    24    1
    19    24    25    2
    20    24    26    2
    21    24    27    1
    22    27    28   ar
    23    28    29    1
    24    28    30   ar
    25    30    31   ar
    26    31    32   ar
    27    32    33   ar
    28    33    34    1
    29     6     7   ar
    30     7     8    1
    31    17    18    2
    32    18    19    1
    33    19    11    1
    34    18    14    1
    35     7     1   ar
    36    33    27   ar
    37    22    23    1
@<TRIPOS>MOLECULE
*****
 34 37 0 0 0
SMALL
GASTEIGER

@<TRIPOS>ATOM
      1 C          63.7053   88.6634   15.7590 C.ar    1  UNL1        0.0951
      2 C          63.3215   87.9973   17.0469 C.ar    1  UNL1        0.1454
      3 F          62.9911   88.8280   18.2515 F       1  UNL1       -0.2040
      4 C          63.2680   86.5006   17.1305 C.ar    1  UNL1        0.0312
      5 C          63.5983   85.6699   15.9259 C.ar    1  UNL1        0.0204
      6 C          63.9822   86.3361   14.6379 C.ar    1  UNL1        0.0924
      7 C          64.0357   87.8328   14.5544 C.ar    1  UNL1        0.1598
      8 F          64.4195   88.4988   13.2663 F       1  UNL1       -0.2026
      9 C          63.7588   90.1601   15.6755 C.2     1  UNL1        0.2036
     10 O          63.1037   90.9944   16.7361 O.2     1  UNL1       -0.2863
     11 C          62.4311   90.7667   11.0294 C.2     1  UNL1        0.0974
     12 C          63.4612   91.4973   10.2202 C.2     1  UNL1        0.2421
     13 N          64.7363   91.9536   10.8652 N.2     1  UNL1       -0.0304
     14 C          64.9813   91.6792   12.3193 C.2     1  UNL1        0.3721
     15 N          66.1342   92.0048   13.2219 N.2     1  UNL1       -0.0307
     16 C          65.8166   91.4754   14.5890 C.2     1  UNL1        0.2390
     17 C          64.4674   90.8226   14.5313 C.2     1  UNL1        0.0896
     18 C          63.9511   90.9486   13.1286 C.2     1  UNL1        0.0782
     19 C          62.6760   90.4923   12.4836 C.3     1  UNL1        0.0751
     20 N          59.8809   89.8542    9.7395 N.1     1  UNL1       -0.1910
     21 C          61.1560   90.3105   10.3845 C.1     1  UNL1        0.1003
     22 N          64.3125   85.5054   13.4334 N.pl3   1  UNL1       -0.2127
     23 H          64.8939   85.8708   12.7279 H       1  UNL1        0.1738
     24 S          63.7569   84.1182   13.3037 S.O2    1  UNL1        0.0780
     25 O          62.4806   84.6808   12.7522 O.2     1  UNL1       -0.1498
     26 O          65.0333   83.5555   13.8552 O.2     1  UNL1       -0.1498
     27 C          63.2014   82.7308   13.1741 C.ar    1  UNL1        0.1797
     28 C          62.2835   82.1889   14.2295 C.ar    1  UNL1        0.1611
     29 F          61.9211   83.0343   15.4144 F       1  UNL1       -0.2027
     30 C          61.7280   80.8016   14.0999 C.ar    1  UNL1        0.0312
     31 C          62.0904   79.9562   12.9150 C.ar    1  UNL1        0.0047
     32 C          63.0083   80.4981   11.8597 C.ar    1  UNL1        0.0312
     33 C          63.5638   81.8854   11.9892 C.ar    1  UNL1        0.1611
     34 F          64.4817   82.4274   10.9339 F       1  UNL1       -0.2027
@<TRIPOS>BOND
     1    20    21    3
     2    21    11    1
     3    11    12    2
     4    12    13    1
     5    13    14    2
     6    14    15    1
     7    15    16    2
     8    16    17    1
     9    17     9    1
    10     9    10    2
    11     9     1    1
    12     1     2   ar
    13     2     3    1
    14     2     4   ar
    15     4     5   ar
    16     5     6   ar
    17     6    22    1
    18    22    24    1
    19    24    25    2
    20    24    26    2
    21    24    27    1
    22    27    28   ar
    23    28    29    1
    24    28    30   ar
    25    30    31   ar
    26    31    32   ar
    27    32    33   ar
    28    33    34    1
    29     6     7   ar
    30     7     8    1
    31    17    18    2
    32    18    19    1
    33    19    11    1
    34    18    14    1
    35     7     1   ar
    36    33    27   ar
    37    22    23    1
@<TRIPOS>MOLECULE
*****
 34 37 0 0 0
SMALL
GASTEIGER

@<TRIPOS>ATOM
      1 C          63.9372   88.2940   15.4942 C.ar    1  UNL1        0.0951
      2 C          63.1555   88.6985   16.7088 C.ar    1  UNL1        0.1454
      3 F          62.8781   90.1487   16.9734 F       1  UNL1       -0.2040
      4 C          62.6514   87.6530   17.6589 C.ar    1  UNL1        0.0312
      5 C          62.9289   86.2028   17.3944 C.ar    1  UNL1        0.0204
      6 C          63.7105   85.7983   16.1796 C.ar    1  UNL1        0.0924
      7 C          64.2147   86.8438   15.2296 C.ar    1  UNL1        0.1598
      8 F          64.9963   86.4392   14.0150 F       1  UNL1       -0.2026
      9 C          64.4413   89.3395   14.5441 C.2     1  UNL1        0.2036
     10 O          65.6187   90.1895   14.9201 O.2     1  UNL1       -0.2863
     11 C          64.9839   92.8184   11.1797 C.2     1  UNL1        0.0974
     12 C          64.0956   92.6190    9.9876 C.2     1  UNL1        0.2421
     13 N          63.1703   91.4397    9.9306 N.2     1  UNL1       -0.0304
     14 C          63.1335   90.4598   11.0656 C.2     1  UNL1        0.3721
     15 N          62.3307   89.2126   11.2892 N.2     1  UNL1       -0.0307
     16 C          62.7229   88.6411   12.6195 C.2     1  UNL1        0.2390
     17 C          63.7681   89.5351   13.2181 C.2     1  UNL1        0.0896
     18 C          64.0218   90.6592   12.2577 C.2     1  UNL1        0.0782
     19 C          64.9470   91.8385   12.3147 C.3     1  UNL1        0.0751
     20 N          66.8343   95.1770   11.2937 N.1     1  UNL1       -0.1910
     21 C          65.9091   93.9977   11.2367 C.1     1  UNL1        0.1003
     22 N          63.9880   84.3481   15.9151 N.pl3   1  UNL1       -0.2127
     23 H          64.3190   83.7700   16.6400 H       1  UNL1        0.1738
     24 S          63.7612   83.7786   14.5461 S.O2    1  UNL1        0.0780
     25 O          62.2795   83.9175   14.7337 O.2     1  UNL1       -0.1498
     26 O          65.2429   83.6397   14.3583 O.2     1  UNL1       -0.1498
     27 C          63.5344   83.2092   13.1769 C.ar    1  UNL1        0.1797
     28 C          63.5764   81.7247   12.9658 C.ar    1  UNL1        0.1611
     29 F          63.8451   80.8097   14.1236 F       1  UNL1       -0.2027
     30 C          63.3496   81.1552   11.5968 C.ar    1  UNL1        0.0312
     31 C          63.0809   82.0702   10.4389 C.ar    1  UNL1        0.0047
     32 C          63.0389   83.5546   10.6500 C.ar    1  UNL1        0.0312
     33 C          63.2657   84.1241   12.0191 C.ar    1  UNL1        0.1611
     34 F          63.2237   85.6086   12.2303 F       1  UNL1       -0.2027
@<TRIPOS>BOND
     1    20    21    3
     2    21    11    1
     3    11    12    2
     4    12    13    1
     5    13    14    2
     6    14    15    1
     7    15    16    2
     8    16    17    1
     9    17     9    1
    10     9    10    2
    11     9     1    1
    12     1     2   ar
    13     2     3    1
    14     2     4   ar
    15     4     5   ar
    16     5     6   ar
    17     6    22    1
    18    22    24    1
    19    24    25    2
    20    24    26    2
    21    24    27    1
    22    27    28   ar
    23    28    29    1
    24    28    30   ar
    25    30    31   ar
    26    31    32   ar
    27    32    33   ar
    28    33    34    1
    29     6     7   ar
    30     7     8    1
    31    17    18    2
    32    18    19    1
    33    19    11    1
    34    18    14    1
    35     7     1   ar
    36    33    27   ar
    37    22    23    1
@<TRIPOS>MOLECULE
*****
 34 37 0 0 0
SMALL
GASTEIGER

@<TRIPOS>ATOM
      1 C          64.0064   84.5722   13.9302 C.ar    1  UNL1        0.0951
      2 C          63.7021   83.1636   14.3463 C.ar    1  UNL1        0.1454
      3 F          64.1496   82.6647   15.6883 F       1  UNL1       -0.2040
      4 C          62.9502   82.2538   13.4205 C.ar    1  UNL1        0.0312
      5 C          62.5027   82.7527   12.0785 C.ar    1  UNL1        0.0204
      6 C          62.8071   84.1614   11.6624 C.ar    1  UNL1        0.0924
      7 C          63.5589   85.0711   12.5882 C.ar    1  UNL1        0.1598
      8 F          63.8633   86.4797   12.1720 F       1  UNL1       -0.2026
      9 C          64.7582   85.4819   14.8560 C.2     1  UNL1        0.2036
     10 O          66.2554   85.4152   14.9209 O.2     1  UNL1       -0.2863
     11 C          64.4523   90.3371   14.6328 C.2     1  UNL1        0.0974
     12 C          63.5829   90.9157   15.7095 C.2     1  UNL1        0.2421
     13 N          62.9197   90.0108   16.7052 N.2     1  UNL1       -0.0304
     14 C          63.1259   88.5273   16.6241 C.2     1  UNL1        0.3721
     15 N          62.6063   87.3946   17.4590 N.2     1  UNL1       -0.0307
     16 C          63.1545   86.1159   16.8983 C.2     1  UNL1        0.2390
     17 C          64.0130   86.4583   15.7169 C.2     1  UNL1        0.0896
     18 C          63.9952   87.9487   15.5474 C.2     1  UNL1        0.0782
     19 C          64.6584   88.8536   14.5518 C.3     1  UNL1        0.0751
     20 N          65.7786   92.1469   12.6415 N.1     1  UNL1       -0.1910
     21 C          65.1154   91.2420   13.6371 C.1     1  UNL1        0.1003
     22 N          62.3596   84.6602   10.3204 N.pl3   1  UNL1       -0.2127
     23 H          62.3854   84.0618    9.5392 H       1  UNL1        0.1738
     24 S          61.8728   86.0709   10.1689 S.O2    1  UNL1        0.0780
     25 O          62.6554   86.2043    8.8963 O.2     1  UNL1       -0.1498
     26 O          61.0901   85.9375   11.4415 O.2     1  UNL1       -0.1498
     27 C          61.3859   87.4816   10.0173 C.ar    1  UNL1        0.1797
     28 C          60.2755   87.7927    9.0580 C.ar    1  UNL1        0.1611
     29 F          59.6520   86.6933    8.2502 F       1  UNL1       -0.2027
     30 C          59.7886   89.2034    8.9064 C.ar    1  UNL1        0.0312
     31 C          60.4120   90.3029    9.7142 C.ar    1  UNL1        0.0047
     32 C          61.5224   89.9918   10.6735 C.ar    1  UNL1        0.0312
     33 C          62.0093   88.5811   10.8250 C.ar    1  UNL1        0.1611
     34 F          63.1197   88.2699   11.7843 F       1  UNL1       -0.2027
@<TRIPOS>BOND
     1    20    21    3
     2    21    11    1
     3    11    12    2
     4    12    13    1
     5    13    14    2
     6    14    15    1
     7    15    16    2
     8    16    17    1
     9    17     9    1
    10     9    10    2
    11     9     1    1
    12     1     2   ar
    13     2     3    1
    14     2     4   ar
    15     4     5   ar
    16     5     6   ar
    17     6    22    1
    18    22    24    1
    19    24    25    2
    20    24    26    2
    21    24    27    1
    22    27    28   ar
    23    28    29    1
    24    28    30   ar
    25    30    31   ar
    26    31    32   ar
    27    32    33   ar
    28    33    34    1
    29     6     7   ar
    30     7     8    1
    31    17    18    2
    32    18    19    1
    33    19    11    1
    34    18    14    1
    35     7     1   ar
    36    33    27   ar
    37    22    23    1
@<TRIPOS>MOLECULE
*****
 34 37 0 0 0
SMALL
GASTEIGER

@<TRIPOS>ATOM
      1 C          63.5667   88.2862   15.7181 C.ar    1  UNL1        0.0951
      2 C          63.2596   87.5726   17.0012 C.ar    1  UNL1        0.1454
      3 F          62.8970   88.3570   18.2273 F       1  UNL1       -0.2040
      4 C          63.3152   86.0747   17.0583 C.ar    1  UNL1        0.0312
      5 C          63.6779   85.2904   15.8323 C.ar    1  UNL1        0.0204
      6 C          63.9849   86.0040   14.5491 C.ar    1  UNL1        0.0924
      7 C          63.9294   87.5019   14.4919 C.ar    1  UNL1        0.1598
      8 F          64.2364   88.2154   13.2088 F       1  UNL1       -0.2026
      9 C          63.5111   89.7841   15.6610 C.2     1  UNL1        0.2036
     10 O          63.2224   90.5718   16.9044 O.2     1  UNL1       -0.2863
     11 C          66.9499   92.9714   14.3449 C.2     1  UNL1        0.0974
     12 C          66.8013   93.4354   12.9262 C.2     1  UNL1        0.2421
     13 N          65.6775   92.9142   12.0804 N.2     1  UNL1       -0.0304
     14 C          64.7023   91.9289   12.6533 C.2     1  UNL1        0.3721
     15 N          63.5038   91.2450   12.0650 N.2     1  UNL1       -0.0307
     16 C          62.9117   90.3583   13.1201 C.2     1  UNL1        0.2390
     17 C          63.7442   90.4942   14.3605 C.2     1  UNL1        0.0896
     18 C          64.8509   91.4648   14.0719 C.2     1  UNL1        0.0782
     19 C          65.9747   91.9861   14.9177 C.3     1  UNL1        0.0751
     20 N          69.1975   94.0139   16.0364 N.1     1  UNL1       -0.1910
     21 C          68.0737   93.4926   15.1906 C.1     1  UNL1        0.1003
     22 N          64.3476   85.2196   13.3230 N.pl3   1  UNL1       -0.2127
     23 H          64.9469   85.6115   12.6473 H       1  UNL1        0.1738
     24 S          63.7971   83.8382   13.1263 S.O2    1  UNL1        0.0780
     25 O          65.0421   83.2565   13.7274 O.2     1  UNL1       -0.1498
     26 O          62.5520   84.4200   12.5252 O.2     1  UNL1       -0.1498
     27 C          63.2466   82.4568   12.9296 C.ar    1  UNL1        0.1797
     28 C          62.4077   81.8244   14.0003 C.ar    1  UNL1        0.1611
     29 F          62.1193   82.5733   15.2676 F       1  UNL1       -0.2027
     30 C          61.8571   80.4430   13.8036 C.ar    1  UNL1        0.0312
     31 C          62.1455   79.6940   12.5364 C.ar    1  UNL1        0.0047
     32 C          62.9844   80.3265   11.4657 C.ar    1  UNL1        0.0312
     33 C          63.5349   81.7078   11.6624 C.ar    1  UNL1        0.1611
     34 F          64.3738   82.3403   10.5918 F       1  UNL1       -0.2027
@<TRIPOS>BOND
     1    20    21    3
     2    21    11    1
     3    11    12    2
     4    12    13    1
     5    13    14    2
     6    14    15    1
     7    15    16    2
     8    16    17    1
     9    17     9    1
    10     9    10    2
    11     9     1    1
    12     1     2   ar
    13     2     3    1
    14     2     4   ar
    15     4     5   ar
    16     5     6   ar
    17     6    22    1
    18    22    24    1
    19    24    25    2
    20    24    26    2
    21    24    27    1
    22    27    28   ar
    23    28    29    1
    24    28    30   ar
    25    30    31   ar
    26    31    32   ar
    27    32    33   ar
    28    33    34    1
    29     6     7   ar
    30     7     8    1
    31    17    18    2
    32    18    19    1
    33    19    11    1
    34    18    14    1
    35     7     1   ar
    36    33    27   ar
    37    22    23    1
@<TRIPOS>MOLECULE
*****
 34 37 0 0 0
SMALL
GASTEIGER

@<TRIPOS>ATOM
      1 C          63.4795   88.4682   15.0978 C.ar    1  UNL1        0.0951
      2 C          63.4000   87.9321   16.4964 C.ar    1  UNL1        0.1454
      3 F          63.1042   88.8581   17.6388 F       1  UNL1       -0.2040
      4 C          63.6164   86.4701   16.7527 C.ar    1  UNL1        0.0312
      5 C          63.9123   85.5441   15.6103 C.ar    1  UNL1        0.0204
      6 C          63.9918   86.0802   14.2116 C.ar    1  UNL1        0.0924
      7 C          63.7754   87.5423   13.9553 C.ar    1  UNL1        0.1598
      8 F          63.8549   88.0783   12.5566 F       1  UNL1       -0.2026
      9 C          63.2632   89.9302   14.8414 C.2     1  UNL1        0.2036
     10 O          62.1746   90.3754   13.9104 O.2     1  UNL1       -0.2863
     11 C          67.2558   92.2398   13.2790 C.2     1  UNL1        0.0974
     12 C          67.8160   93.1879   14.2974 C.2     1  UNL1        0.2421
     13 N          67.1448   93.3392   15.6303 N.2     1  UNL1       -0.0304
     14 C          65.9134   92.5425   15.9448 C.2     1  UNL1        0.3721
     15 N          65.0418   92.4811   17.1640 N.2     1  UNL1       -0.0307
     16 C          63.9429   91.4950   16.8991 C.2     1  UNL1        0.2390
     17 C          64.1354   90.9470   15.5162 C.2     1  UNL1        0.0896
     18 C          65.3532   91.5944   14.9264 C.2     1  UNL1        0.0782
     19 C          66.0244   91.4431   13.5935 C.3     1  UNL1        0.0751
     20 N          68.5981   91.9370   10.6132 N.1     1  UNL1       -0.1910
     21 C          67.9269   92.0884   11.9461 C.1     1  UNL1        0.1003
     22 N          64.2877   85.1543   13.0692 N.pl3   1  UNL1       -0.2127
     23 H          64.8709   85.4508   12.3336 H       1  UNL1        0.1738
     24 S          63.6950   83.7765   13.0477 S.O2    1  UNL1        0.0780
     25 O          65.0000   83.2077   13.5204 O.2     1  UNL1       -0.1498
     26 O          62.3900   84.3452   12.5751 O.2     1  UNL1       -0.1498
     27 C          63.1023   82.3987   13.0262 C.ar    1  UNL1        0.1797
     28 C          62.2526   81.9299   14.1700 C.ar    1  UNL1        0.1611
     29 F          61.9956   82.8388   15.3353 F       1  UNL1       -0.2027
     30 C          61.6599   80.5521   14.1486 C.ar    1  UNL1        0.0312
     31 C          61.9168   79.6432   12.9833 C.ar    1  UNL1        0.0047
     32 C          62.7665   80.1120   11.8395 C.ar    1  UNL1        0.0312
     33 C          63.3592   81.4897   11.8610 C.ar    1  UNL1        0.1611
     34 F          64.2089   81.9586   10.7172 F       1  UNL1       -0.2027
@<TRIPOS>BOND
     1    20    21    3
     2    21    11    1
     3    11    12    2
     4    12    13    1
     5    13    14    2
     6    14    15    1
     7    15    16    2
     8    16    17    1
     9    17     9    1
    10     9    10    2
    11     9     1    1
    12     1     2   ar
    13     2     3    1
    14     2     4   ar
    15     4     5   ar
    16     5     6   ar
    17     6    22    1
    18    22    24    1
    19    24    25    2
    20    24    26    2
    21    24    27    1
    22    27    28   ar
    23    28    29    1
    24    28    30   ar
    25    30    31   ar
    26    31    32   ar
    27    32    33   ar
    28    33    34    1
    29     6     7   ar
    30     7     8    1
    31    17    18    2
    32    18    19    1
    33    19    11    1
    34    18    14    1
    35     7     1   ar
    36    33    27   ar
    37    22    23    1
@<TRIPOS>MOLECULE
*****
 34 37 0 0 0
SMALL
GASTEIGER

@<TRIPOS>ATOM
      1 C          62.4415   88.8999   11.2681 C.ar    1  UNL1        0.0951
      2 C          61.7674   88.3505   10.0459 C.ar    1  UNL1        0.1454
      3 F          61.1278   89.2821    9.0595 F       1  UNL1       -0.2040
      4 C          61.7330   86.8696    9.8100 C.ar    1  UNL1        0.0312
      5 C          62.3727   85.9379   10.7963 C.ar    1  UNL1        0.0204
      6 C          63.0468   86.4874   12.0186 C.ar    1  UNL1        0.0924
      7 C          63.0812   87.9683   12.2545 C.ar    1  UNL1        0.1598
      8 F          63.7552   88.5176   13.4767 F       1  UNL1       -0.2026
      9 C          62.4759   90.3808   11.5039 C.2     1  UNL1        0.2036
     10 O          61.5484   91.2829   10.7450 O.2     1  UNL1       -0.2863
     11 C          66.3516   93.2630   10.8811 C.2     1  UNL1        0.0974
     12 C          67.0357   93.6055   12.1712 C.2     1  UNL1        0.2421
     13 N          66.5056   93.0675   13.4672 N.2     1  UNL1       -0.0304
     14 C          65.2913   92.1869   13.4729 C.2     1  UNL1        0.3721
     15 N          64.5448   91.5139   14.5863 N.2     1  UNL1       -0.0307
     16 C          63.3992   90.7553   13.9843 C.2     1  UNL1        0.2390
     17 C          63.4377   90.9596   12.4988 C.2     1  UNL1        0.0896
     18 C          64.6071   91.8444   12.1828 C.2     1  UNL1        0.0782
     19 C          65.1373   92.3825   10.8868 C.3     1  UNL1        0.0751
     20 N          67.4119   94.3390    8.2892 N.1     1  UNL1       -0.1910
     21 C          66.8818   93.8010    9.5851 C.1     1  UNL1        0.1003
     22 N          63.6864   85.5557   13.0049 N.pl3   1  UNL1       -0.2127
     23 H          64.3372   85.9013   13.6579 H       1  UNL1        0.1738
     24 S          63.3347   84.0976   12.9964 S.O2    1  UNL1        0.0780
     25 O          64.7397   83.7609   12.5933 O.2     1  UNL1       -0.1498
     26 O          61.9296   84.4342   13.3995 O.2     1  UNL1       -0.1498
     27 C          62.9828   82.6394   12.9879 C.ar    1  UNL1        0.1797
     28 C          62.5350   81.9686   14.2526 C.ar    1  UNL1        0.1611
     29 F          62.4389   82.7559   15.5258 F       1  UNL1       -0.2027
     30 C          62.1831   80.5105   14.2441 C.ar    1  UNL1        0.0312
     31 C          62.2792   79.7232   12.9710 C.ar    1  UNL1        0.0047
     32 C          62.7271   80.3939   11.7063 C.ar    1  UNL1        0.0312
     33 C          63.0789   81.8521   11.7147 C.ar    1  UNL1        0.1611
     34 F          63.5268   82.5229   10.4501 F       1  UNL1       -0.2027
@<TRIPOS>BOND
     1    20    21    3
     2    21    11    1
     3    11    12    2
     4    12    13    1
     5    13    14    2
     6    14    15    1
     7    15    16    2
     8    16    17    1
     9    17     9    1
    10     9    10    2
    11     9     1    1
    12     1     2   ar
    13     2     3    1
    14     2     4   ar
    15     4     5   ar
    16     5     6   ar
    17     6    22    1
    18    22    24    1
    19    24    25    2
    20    24    26    2
    21    24    27    1
    22    27    28   ar
    23    28    29    1
    24    28    30   ar
    25    30    31   ar
    26    31    32   ar
    27    32    33   ar
    28    33    34    1
    29     6     7   ar
    30     7     8    1
    31    17    18    2
    32    18    19    1
    33    19    11    1
    34    18    14    1
    35     7     1   ar
    36    33    27   ar
    37    22    23    1
@<TRIPOS>MOLECULE
*****
 34 37 0 0 0
SMALL
GASTEIGER

@<TRIPOS>ATOM
      1 C          63.6724   89.0358   15.2463 C.ar    1  UNL1        0.0951
      2 C          63.1216   88.7628   16.6145 C.ar    1  UNL1        0.1454
      3 F          62.5316   89.8806   17.4222 F       1  UNL1       -0.2040
      4 C          63.1607   87.3720   17.1750 C.ar    1  UNL1        0.0312
      5 C          63.7507   86.2542   16.3673 C.ar    1  UNL1        0.0204
      6 C          64.3016   86.5273   14.9990 C.ar    1  UNL1        0.0924
      7 C          64.2624   87.9181   14.4385 C.ar    1  UNL1        0.1598
      8 F          64.8133   88.1910   13.0703 F       1  UNL1       -0.2026
      9 C          63.6333   90.4266   14.6858 C.2     1  UNL1        0.2036
     10 O          63.9134   91.6018   15.5749 O.2     1  UNL1       -0.2863
     11 C          59.5661   89.5470   12.1557 C.2     1  UNL1        0.0974
     12 C          59.6888   89.9204   10.7081 C.2     1  UNL1        0.2421
     13 N          60.9721   90.4978   10.1887 N.2     1  UNL1       -0.0304
     14 C          62.1326   90.7019   11.1167 C.2     1  UNL1        0.3721
     15 N          63.5124   91.2463   10.8938 N.2     1  UNL1       -0.0307
     16 C          64.2425   91.2095   12.2037 C.2     1  UNL1        0.2390
     17 C          63.3140   90.6423   13.2361 C.2     1  UNL1        0.0896
     18 C          62.0099   90.3285   12.5643 C.2     1  UNL1        0.0782
     19 C          60.7267   89.7511   13.0838 C.3     1  UNL1        0.0751
     20 N          56.9996   88.3922   13.1947 N.1     1  UNL1       -0.1910
     21 C          58.2829   88.9696   12.6752 C.1     1  UNL1        0.1003
     22 N          64.8916   85.4094   14.1913 N.pl3   1  UNL1       -0.2127
     23 H          65.7951   85.5005   13.8111 H       1  UNL1        0.1738
     24 S          64.1049   84.1529   13.9629 S.O2    1  UNL1        0.0780
     25 O          64.9130   83.4554   15.0166 O.2     1  UNL1       -0.1498
     26 O          63.2968   84.8503   12.9092 O.2     1  UNL1       -0.1498
     27 C          63.3182   82.8962   13.7344 C.ar    1  UNL1        0.1797
     28 C          62.1366   82.5828   14.6036 C.ar    1  UNL1        0.1611
     29 F          61.7417   83.5258   15.7013 F       1  UNL1       -0.2027
     30 C          61.3499   81.3262   14.3752 C.ar    1  UNL1        0.0312
     31 C          61.7448   80.3832   13.2776 C.ar    1  UNL1        0.0047
     32 C          62.9264   80.6966   12.4084 C.ar    1  UNL1        0.0312
     33 C          63.7131   81.9532   12.6368 C.ar    1  UNL1        0.1611
     34 F          64.8947   82.2667   11.7677 F       1  UNL1       -0.2027
@<TRIPOS>BOND
     1    20    21    3
     2    21    11    1
     3    11    12    2
     4    12    13    1
     5    13    14    2
     6    14    15    1
     7    15    16    2
     8    16    17    1
     9    17     9    1
    10     9    10    2
    11     9     1    1
    12     1     2   ar
    13     2     3    1
    14     2     4   ar
    15     4     5   ar
    16     5     6   ar
    17     6    22    1
    18    22    24    1
    19    24    25    2
    20    24    26    2
    21    24    27    1
    22    27    28   ar
    23    28    29    1
    24    28    30   ar
    25    30    31   ar
    26    31    32   ar
    27    32    33   ar
    28    33    34    1
    29     6     7   ar
    30     7     8    1
    31    17    18    2
    32    18    19    1
    33    19    11    1
    34    18    14    1
    35     7     1   ar
    36    33    27   ar
    37    22    23    1
@<TRIPOS>MOLECULE
*****
 34 37 0 0 0
SMALL
GASTEIGER

@<TRIPOS>ATOM
      1 C          60.5593   94.4747   -0.7450 C.ar    1  UNL1        0.0951
      2 C          60.7766   93.5819   -1.9306 C.ar    1  UNL1        0.1454
      3 F          62.1617   93.1259   -2.2821 F       1  UNL1       -0.2040
      4 C          59.6089   93.1451   -2.7647 C.ar    1  UNL1        0.0312
      5 C          58.2238   93.6011   -2.4132 C.ar    1  UNL1        0.0204
      6 C          58.0065   94.4939   -1.2275 C.ar    1  UNL1        0.0924
      7 C          59.1742   94.9307   -0.3934 C.ar    1  UNL1        0.1598
      8 F          58.9567   95.8235    0.7922 F       1  UNL1       -0.2026
      9 C          61.7270   94.9115    0.0891 C.2     1  UNL1        0.2036
     10 O          62.1695   96.3445    0.0679 O.2     1  UNL1       -0.2863
     11 C          60.1660   92.1586    3.7907 C.2     1  UNL1        0.0974
     12 C          61.2457   91.2913    4.3669 C.2     1  UNL1        0.2421
     13 N          62.6311   91.3381    3.7938 N.2     1  UNL1       -0.0304
     14 C          62.9368   92.2522    2.6445 C.2     1  UNL1        0.3721
     15 N          64.1990   92.5118    1.8768 N.2     1  UNL1       -0.0307
     16 C          63.8995   93.5396    0.8261 C.2     1  UNL1        0.2390
     17 C          62.4521   93.9152    0.9444 C.2     1  UNL1        0.0896
     18 C          61.8572   93.1195    2.0683 C.2     1  UNL1        0.0782
     19 C          60.4717   93.0727    2.6414 C.3     1  UNL1        0.0751
     20 N          57.3952   92.0650    4.9368 N.1     1  UNL1       -0.1910
     21 C          58.7806   92.1118    4.3637 C.1     1  UNL1        0.1003
     22 N          56.6214   94.9499   -0.8760 N.pl3   1  UNL1       -0.2127
     23 H          56.3528   95.0256    0.0681 H       1  UNL1        0.1738
     24 S          55.6455   95.2905   -1.9630 S.O2    1  UNL1        0.0780
     25 O          54.9372   93.9881   -1.7354 O.2     1  UNL1       -0.1498
     26 O          56.3537   96.5930   -2.1907 O.2     1  UNL1       -0.1498
     27 C          54.6695   95.6312   -3.0501 C.ar    1  UNL1        0.1797
     28 C          53.3193   96.1826   -2.6998 C.ar    1  UNL1        0.1611
     29 F          52.9448   96.3933   -1.2627 F       1  UNL1       -0.2027
     30 C          52.3433   96.5233   -3.7868 C.ar    1  UNL1        0.0312
     31 C          52.7177   96.3126   -5.2240 C.ar    1  UNL1        0.0047
     32 C          54.0680   95.7612   -5.5742 C.ar    1  UNL1        0.0312
     33 C          55.0439   95.4205   -4.4872 C.ar    1  UNL1        0.1611
     34 F          56.3942   94.8691   -4.8374 F       1  UNL1       -0.2027
@<TRIPOS>BOND
     1    20    21    3
     2    21    11    1
     3    11    12    2
     4    12    13    1
     5    13    14    2
     6    14    15    1
     7    15    16    2
     8    16    17    1
     9    17     9    1
    10     9    10    2
    11     9     1    1
    12     1     2   ar
    13     2     3    1
    14     2     4   ar
    15     4     5   ar
    16     5     6   ar
    17     6    22    1
    18    22    24    1
    19    24    25    2
    20    24    26    2
    21    24    27    1
    22    27    28   ar
    23    28    29    1
    24    28    30   ar
    25    30    31   ar
    26    31    32   ar
    27    32    33   ar
    28    33    34    1
    29     6     7   ar
    30     7     8    1
    31    17    18    2
    32    18    19    1
    33    19    11    1
    34    18    14    1
    35     7     1   ar
    36    33    27   ar
    37    22    23    1
