@<TRIPOS>MOLECULE
*****
 25 28 0 0 0
SMALL
GASTEIGER

@<TRIPOS>ATOM
      1 C          64.2765   82.3114   10.4780 C.3     1  UNL1        0.0326
      2 C          63.8599   83.5352   11.2387 C.ar    1  UNL1       -0.0037
      3 C          64.3175   83.7307   12.6537 C.ar    1  UNL1        0.0086
      4 C          63.9009   84.9545   13.4145 C.ar    1  UNL1        0.0574
      5 CL         64.3585   85.1500   14.8295 Cl      1  UNL1       -0.0823
      6 C          63.0266   85.9828   12.7601 C.ar    1  UNL1        0.0126
      7 C          62.5689   85.7873   11.3450 C.ar    1  UNL1        0.0164
      8 C          61.6946   86.8157   10.6907 C.2     1  UNL1        0.0124
      9 C          61.2370   86.6202    9.2756 C.2     1  UNL1        0.0386
     10 C          60.3769   87.4557    8.3745 C.2     1  UNL1        0.0801
     11 C          59.7430   88.7682    8.7287 C.3     1  UNL1        0.0538
     12 N          60.2620   86.7482    7.0568 N.2     1  UNL1       -0.1551
     13 N          61.0511   85.4755    7.1436 N.2     1  UNL1       -0.1469
     14 C          61.6537   85.3963    8.5150 C.3     1  UNL1        0.2503
     15 N          62.5280   84.3680    9.1693 N.2     1  UNL1       -0.2427
     16 C          62.9856   84.5636   10.5843 C.ar    1  UNL1        0.0743
     17 C          61.2780   88.0395   11.4515 C.3     1  UNL1        0.1724
     18 O          59.9106   88.1126   12.0637 O.3     1  UNL1       -0.3742
     19 H          59.4278   87.2926   11.8755 H       1  UNL1        0.2113
     20 C          62.2287   89.1901   11.6000 C.ar    1  UNL1        0.0899
     21 C          62.5728   90.0371   10.4108 C.ar    1  UNL1        0.0175
     22 C          63.5236   91.1877   10.5594 C.ar    1  UNL1        0.0029
     23 C          64.1303   91.4913   11.8972 C.ar    1  UNL1        0.0207
     24 C          63.7863   90.6443   13.0864 C.ar    1  UNL1        0.0986
     25 N          62.8355   89.4937   12.9378 N.ar    1  UNL1       -0.2454
@<TRIPOS>BOND
     1     1     2    1
     2     2     3   ar
     3     3     4   ar
     4     4     5    1
     5     4     6   ar
     6     6     7   ar
     7     7     8    2
     8     8    17    1
     9    17    18    1
    10    17    20    1
    11    20    21   ar
    12    21    22   ar
    13    22    23   ar
    14    23    24   ar
    15    24    25   ar
    16     8     9    1
    17     9    10    2
    18    10    11    1
    19    10    12    1
    20    12    13    2
    21    13    14    1
    22    14    15    1
    23    15    16    2
    24    16     2   ar
    25    16     7   ar
    26    25    20   ar
    27    14     9    1
    28    18    19    1
@<TRIPOS>MOLECULE
*****
 25 28 0 0 0
SMALL
GASTEIGER

@<TRIPOS>ATOM
      1 C          65.0088   85.7588   14.9205 C.3     1  UNL1        0.0326
      2 C          64.0357   85.3949   13.8387 C.ar    1  UNL1       -0.0037
      3 C          63.6683   83.9583   13.6125 C.ar    1  UNL1        0.0086
      4 C          62.6951   83.5944   12.5305 C.ar    1  UNL1        0.0574
      5 CL         62.3277   82.1578   12.3043 Cl      1  UNL1       -0.0823
      6 C          62.0894   84.6671   11.6748 C.ar    1  UNL1        0.0126
      7 C          62.4568   86.1038   11.9010 C.ar    1  UNL1        0.0164
      8 C          61.8510   87.1766   11.0452 C.2     1  UNL1        0.0124
      9 C          62.2185   88.6131   11.2714 C.2     1  UNL1        0.0386
     10 C          61.7868   89.8785   10.5914 C.2     1  UNL1        0.0801
     11 C          60.8188   89.9802    9.4501 C.3     1  UNL1        0.0538
     12 N          62.4933   91.0245   11.2530 N.2     1  UNL1       -0.1551
     13 N          63.3615   90.4673   12.3420 N.2     1  UNL1       -0.1469
     14 C          63.1916   88.9770   12.3533 C.3     1  UNL1        0.2503
     15 N          63.7974   87.9043   13.2091 N.2     1  UNL1       -0.2427
     16 C          63.4299   86.4677   12.9829 C.ar    1  UNL1        0.0743
     17 C          60.8779   86.8126    9.9632 C.3     1  UNL1        0.1724
     18 O          59.4340   87.1978   10.0927 O.3     1  UNL1       -0.3742
     19 H          59.2996   87.6726   10.9278 H       1  UNL1        0.2113
     20 C          61.3486   86.0635    8.7520 C.ar    1  UNL1        0.0899
     21 C          62.7913   85.6729    8.6255 C.ar    1  UNL1        0.0175
     22 C          63.2620   84.9238    7.4141 C.ar    1  UNL1        0.0029
     23 C          62.2900   84.5654    6.3293 C.ar    1  UNL1        0.0207
     24 C          60.8473   84.9560    6.4559 C.ar    1  UNL1        0.0986
     25 N          60.3766   85.7051    7.6672 N.ar    1  UNL1       -0.2454
@<TRIPOS>BOND
     1     1     2    1
     2     2     3   ar
     3     3     4   ar
     4     4     5    1
     5     4     6   ar
     6     6     7   ar
     7     7     8    2
     8     8    17    1
     9    17    18    1
    10    17    20    1
    11    20    21   ar
    12    21    22   ar
    13    22    23   ar
    14    23    24   ar
    15    24    25   ar
    16     8     9    1
    17     9    10    2
    18    10    11    1
    19    10    12    1
    20    12    13    2
    21    13    14    1
    22    14    15    1
    23    15    16    2
    24    16     2   ar
    25    16     7   ar
    26    25    20   ar
    27    14     9    1
    28    18    19    1
@<TRIPOS>MOLECULE
*****
 25 28 0 0 0
SMALL
GASTEIGER

@<TRIPOS>ATOM
      1 C          63.2613   83.0018   11.0667 C.3     1  UNL1        0.0326
      2 C          63.2645   84.3229   11.7769 C.ar    1  UNL1       -0.0037
      3 C          64.0174   84.4804   13.0647 C.ar    1  UNL1        0.0086
      4 C          64.0206   85.8016   13.7750 C.ar    1  UNL1        0.0574
      5 CL         64.7736   85.9590   15.0627 Cl      1  UNL1       -0.0823
      6 C          63.2709   86.9653   13.1975 C.ar    1  UNL1        0.0126
      7 C          62.5179   86.8078   11.9097 C.ar    1  UNL1        0.0164
      8 C          61.7681   87.9717   11.3322 C.2     1  UNL1        0.0124
      9 C          61.0151   87.8142   10.0445 C.2     1  UNL1        0.0386
     10 C          60.1910   88.7751    9.2398 C.2     1  UNL1        0.0801
     11 C          59.9259   90.2111    9.5825 C.3     1  UNL1        0.0538
     12 N          59.6784   88.0477    8.0322 N.2     1  UNL1       -0.1551
     13 N          60.1858   86.6373    8.0906 N.2     1  UNL1       -0.1469
     14 C          61.0119   86.4930    9.3342 C.3     1  UNL1        0.2503
     15 N          61.7617   85.3293    9.9117 N.2     1  UNL1       -0.2427
     16 C          62.5147   85.4867   11.1995 C.ar    1  UNL1        0.0743
     17 C          61.7713   89.2929   12.0425 C.3     1  UNL1        0.1724
     18 O          60.6484   89.6476   12.9716 O.3     1  UNL1       -0.3742
     19 H          60.0088   88.9188   12.9988 H       1  UNL1        0.2113
     20 C          62.8974   90.2593   11.8237 C.ar    1  UNL1        0.0899
     21 C          63.7451   90.6977   12.9809 C.ar    1  UNL1        0.0175
     22 C          64.8711   91.6642   12.7620 C.ar    1  UNL1        0.0029
     23 C          65.1496   92.1921   11.3858 C.ar    1  UNL1        0.0207
     24 C          64.3019   91.7536   10.2286 C.ar    1  UNL1        0.0986
     25 N          63.1758   90.7872   10.4475 N.ar    1  UNL1       -0.2454
@<TRIPOS>BOND
     1     1     2    1
     2     2     3   ar
     3     3     4   ar
     4     4     5    1
     5     4     6   ar
     6     6     7   ar
     7     7     8    2
     8     8    17    1
     9    17    18    1
    10    17    20    1
    11    20    21   ar
    12    21    22   ar
    13    22    23   ar
    14    23    24   ar
    15    24    25   ar
    16     8     9    1
    17     9    10    2
    18    10    11    1
    19    10    12    1
    20    12    13    2
    21    13    14    1
    22    14    15    1
    23    15    16    2
    24    16     2   ar
    25    16     7   ar
    26    25    20   ar
    27    14     9    1
    28    18    19    1
@<TRIPOS>MOLECULE
*****
 25 28 0 0 0
SMALL
GASTEIGER

@<TRIPOS>ATOM
      1 C          60.8539   89.8629   10.4291 C.3     1  UNL1        0.0326
      2 C          61.1393   88.4173   10.1486 C.ar    1  UNL1       -0.0037
      3 C          60.5632   87.7621    8.9285 C.ar    1  UNL1        0.0086
      4 C          60.8487   86.3164    8.6480 C.ar    1  UNL1        0.0574
      5 CL         60.2726   85.6611    7.4278 Cl      1  UNL1       -0.0823
      6 C          61.7102   85.5260    9.5876 C.ar    1  UNL1        0.0126
      7 C          62.2863   86.1813   10.8079 C.ar    1  UNL1        0.0164
      8 C          63.1479   85.3908   11.7476 C.2     1  UNL1        0.0124
      9 C          63.7240   86.0461   12.9677 C.2     1  UNL1        0.0386
     10 C          64.6016   85.5251   14.0670 C.2     1  UNL1        0.0801
     11 C          65.1295   84.1261   14.1856 C.3     1  UNL1        0.0538
     12 N          64.8585   86.6488   15.0268 N.2     1  UNL1       -0.1551
     13 N          64.1397   87.8642   14.5208 N.2     1  UNL1       -0.1469
     14 C          63.4385   87.4917   13.2482 C.3     1  UNL1        0.2503
     15 N          62.5769   88.2821   12.3085 N.2     1  UNL1       -0.2427
     16 C          62.0009   87.6268   11.0883 C.ar    1  UNL1        0.0743
     17 C          63.4333   83.9452   11.4670 C.3     1  UNL1        0.1724
     18 O          64.3049   83.5642   10.3072 O.3     1  UNL1       -0.3742
     19 H          64.5986   84.3657    9.8465 H       1  UNL1        0.2113
     20 C          62.8472   82.8806   12.3463 C.ar    1  UNL1        0.0899
     21 C          62.9729   81.4364   11.9611 C.ar    1  UNL1        0.0175
     22 C          62.3867   80.3719   12.8404 C.ar    1  UNL1        0.0029
     23 C          61.6749   80.7516   14.1050 C.ar    1  UNL1        0.0207
     24 C          61.5493   82.1958   14.4902 C.ar    1  UNL1        0.0986
     25 N          62.1354   83.2603   13.6109 N.ar    1  UNL1       -0.2454
@<TRIPOS>BOND
     1     1     2    1
     2     2     3   ar
     3     3     4   ar
     4     4     5    1
     5     4     6   ar
     6     6     7   ar
     7     7     8    2
     8     8    17    1
     9    17    18    1
    10    17    20    1
    11    20    21   ar
    12    21    22   ar
    13    22    23   ar
    14    23    24   ar
    15    24    25   ar
    16     8     9    1
    17     9    10    2
    18    10    11    1
    19    10    12    1
    20    12    13    2
    21    13    14    1
    22    14    15    1
    23    15    16    2
    24    16     2   ar
    25    16     7   ar
    26    25    20   ar
    27    14     9    1
    28    18    19    1
@<TRIPOS>MOLECULE
*****
 25 28 0 0 0
SMALL
GASTEIGER

@<TRIPOS>ATOM
      1 C          57.2708   92.3416   -1.1844 C.3     1  UNL1        0.0326
      2 C          58.3100   93.1322   -1.9225 C.ar    1  UNL1       -0.0037
      3 C          57.9696   93.7804   -3.2317 C.ar    1  UNL1        0.0086
      4 C          59.0089   94.5710   -3.9699 C.ar    1  UNL1        0.0574
      5 CL         58.6685   95.2192   -5.2791 Cl      1  UNL1       -0.0823
      6 C          60.3886   94.7134   -3.3989 C.ar    1  UNL1        0.0126
      7 C          60.7291   94.0651   -2.0896 C.ar    1  UNL1        0.0164
      8 C          62.1089   94.2075   -1.5186 C.2     1  UNL1        0.0124
      9 C          62.4493   93.5593   -0.2095 C.2     1  UNL1        0.0386
     10 C          63.7150   93.5259    0.5948 C.2     1  UNL1        0.0801
     11 C          65.0103   94.1875    0.2282 C.3     1  UNL1        0.0538
     12 N          63.4579   92.7146    1.8300 N.2     1  UNL1       -0.1551
     13 N          62.0333   92.2467    1.7892 N.2     1  UNL1       -0.1469
     14 C          61.4100   92.7687    0.5287 C.3     1  UNL1        0.2503
     15 N          60.0302   92.6264   -0.0424 N.2     1  UNL1       -0.2427
     16 C          59.6898   93.2746   -1.3515 C.ar    1  UNL1        0.0743
     17 C          63.1481   94.9981   -2.2568 C.3     1  UNL1        0.1724
     18 O          63.4675   96.4001   -1.8296 O.3     1  UNL1       -0.3742
     19 H          62.9171   96.6392   -1.0675 H       1  UNL1        0.2113
     20 C          63.8680   94.3868   -3.4221 C.ar    1  UNL1        0.0899
     21 C          63.9334   92.8950   -3.5646 C.ar    1  UNL1        0.0175
     22 C          64.6533   92.2837   -4.7299 C.ar    1  UNL1        0.0029
     23 C          65.3078   93.1642   -5.7529 C.ar    1  UNL1        0.0207
     24 C          65.2424   94.6560   -5.6104 C.ar    1  UNL1        0.0986
     25 N          64.5225   95.2672   -4.4451 N.ar    1  UNL1       -0.2454
@<TRIPOS>BOND
     1     1     2    1
     2     2     3   ar
     3     3     4   ar
     4     4     5    1
     5     4     6   ar
     6     6     7   ar
     7     7     8    2
     8     8    17    1
     9    17    18    1
    10    17    20    1
    11    20    21   ar
    12    21    22   ar
    13    22    23   ar
    14    23    24   ar
    15    24    25   ar
    16     8     9    1
    17     9    10    2
    18    10    11    1
    19    10    12    1
    20    12    13    2
    21    13    14    1
    22    14    15    1
    23    15    16    2
    24    16     2   ar
    25    16     7   ar
    26    25    20   ar
    27    14     9    1
    28    18    19    1
@<TRIPOS>MOLECULE
*****
 25 28 0 0 0
SMALL
GASTEIGER

@<TRIPOS>ATOM
      1 C          61.9830   90.5693    9.5756 C.3     1  UNL1        0.0326
      2 C          61.7320   89.1215    9.8762 C.ar    1  UNL1       -0.0037
      3 C          60.8710   88.3035    8.9599 C.ar    1  UNL1        0.0086
      4 C          60.6199   86.8555    9.2605 C.ar    1  UNL1        0.0574
      5 CL         59.7590   86.0375    8.3442 Cl      1  UNL1       -0.0823
      6 C          61.2299   86.2255   10.4775 C.ar    1  UNL1        0.0126
      7 C          62.0909   87.0435   11.3939 C.ar    1  UNL1        0.0164
      8 C          62.7008   86.4134   12.6109 C.2     1  UNL1        0.0124
      9 C          63.5617   87.2313   13.5272 C.2     1  UNL1        0.0386
     10 C          64.2918   86.8870   14.7915 C.2     1  UNL1        0.0801
     11 C          64.3155   85.5435   15.4581 C.3     1  UNL1        0.0538
     12 N          64.9940   88.1222   15.2723 N.2     1  UNL1       -0.1551
     13 N          64.6980   89.2299   14.3051 N.2     1  UNL1       -0.1469
     14 C          63.8128   88.6793   13.2266 C.3     1  UNL1        0.2503
     15 N          63.2029   89.3093   12.0096 N.2     1  UNL1       -0.2427
     16 C          62.3419   88.4914   11.0933 C.ar    1  UNL1        0.0743
     17 C          62.4497   84.9654   12.9115 C.3     1  UNL1        0.1724
     18 O          61.6864   84.5765   14.1428 O.3     1  UNL1       -0.3742
     19 H          61.4300   85.3751   14.6300 H       1  UNL1        0.2113
     20 C          62.9619   83.9064   11.9808 C.ar    1  UNL1        0.0899
     21 C          63.8575   84.2819   10.8376 C.ar    1  UNL1        0.0175
     22 C          64.3696   83.2229    9.9069 C.ar    1  UNL1        0.0029
     23 C          63.9861   81.7884   10.1194 C.ar    1  UNL1        0.0207
     24 C          63.0905   81.4129   11.2626 C.ar    1  UNL1        0.0986
     25 N          62.5784   82.4719   12.1933 N.ar    1  UNL1       -0.2454
@<TRIPOS>BOND
     1     1     2    1
     2     2     3   ar
     3     3     4   ar
     4     4     5    1
     5     4     6   ar
     6     6     7   ar
     7     7     8    2
     8     8    17    1
     9    17    18    1
    10    17    20    1
    11    20    21   ar
    12    21    22   ar
    13    22    23   ar
    14    23    24   ar
    15    24    25   ar
    16     8     9    1
    17     9    10    2
    18    10    11    1
    19    10    12    1
    20    12    13    2
    21    13    14    1
    22    14    15    1
    23    15    16    2
    24    16     2   ar
    25    16     7   ar
    26    25    20   ar
    27    14     9    1
    28    18    19    1
@<TRIPOS>MOLECULE
*****
 25 28 0 0 0
SMALL
GASTEIGER

@<TRIPOS>ATOM
      1 C          61.7826   91.9904    2.8781 C.3     1  UNL1        0.0326
      2 C          62.3700   92.7496    1.7256 C.ar    1  UNL1       -0.0037
      3 C          63.7677   93.2865    1.8154 C.ar    1  UNL1        0.0086
      4 C          64.3552   94.0457    0.6628 C.ar    1  UNL1        0.0574
      5 CL         65.7529   94.5826    0.7527 Cl      1  UNL1       -0.0823
      6 C          63.5448   94.2680   -0.5797 C.ar    1  UNL1        0.0126
      7 C          62.1470   93.7311   -0.6696 C.ar    1  UNL1        0.0164
      8 C          61.3367   93.9535   -1.9122 C.2     1  UNL1        0.0124
      9 C          59.9389   93.4167   -2.0021 C.2     1  UNL1        0.0386
     10 C          58.9080   93.4786   -3.0899 C.2     1  UNL1        0.0801
     11 C          59.0727   94.1445   -4.4239 C.3     1  UNL1        0.0538
     12 N          57.6835   92.7576   -2.6096 N.2     1  UNL1       -0.1551
     13 N          57.9576   92.2501   -1.2249 N.2     1  UNL1       -0.1469
     14 C          59.3515   92.6575   -0.8495 C.3     1  UNL1        0.2503
     15 N          60.1619   92.4351    0.3931 N.2     1  UNL1       -0.2427
     16 C          61.5596   92.9720    0.4829 C.ar    1  UNL1        0.0743
     17 C          61.9241   94.7128   -3.0649 C.3     1  UNL1        0.1724
     18 O          61.7173   96.1947   -3.1701 O.3     1  UNL1       -0.3742
     19 H          61.1863   96.5012   -2.4184 H       1  UNL1        0.2113
     20 C          62.7184   93.9900   -4.1121 C.ar    1  UNL1        0.0899
     21 C          63.7939   93.0265   -3.7059 C.ar    1  UNL1        0.0175
     22 C          64.5881   92.3039   -4.7532 C.ar    1  UNL1        0.0029
     23 C          64.3069   92.5447   -6.2068 C.ar    1  UNL1        0.0207
     24 C          63.2314   93.5082   -6.6130 C.ar    1  UNL1        0.0986
     25 N          62.4372   94.2309   -5.5657 N.ar    1  UNL1       -0.2454
@<TRIPOS>BOND
     1     1     2    1
     2     2     3   ar
     3     3     4   ar
     4     4     5    1
     5     4     6   ar
     6     6     7   ar
     7     7     8    2
     8     8    17    1
     9    17    18    1
    10    17    20    1
    11    20    21   ar
    12    21    22   ar
    13    22    23   ar
    14    23    24   ar
    15    24    25   ar
    16     8     9    1
    17     9    10    2
    18    10    11    1
    19    10    12    1
    20    12    13    2
    21    13    14    1
    22    14    15    1
    23    15    16    2
    24    16     2   ar
    25    16     7   ar
    26    25    20   ar
    27    14     9    1
    28    18    19    1
@<TRIPOS>MOLECULE
*****
 25 28 0 0 0
SMALL
GASTEIGER

@<TRIPOS>ATOM
      1 C          56.0088   91.6161   -2.3149 C.3     1  UNL1        0.0326
      2 C          57.0345   92.3853   -3.0934 C.ar    1  UNL1       -0.0037
      3 C          56.7549   92.7851   -4.5118 C.ar    1  UNL1        0.0086
      4 C          57.7807   93.5544   -5.2904 C.ar    1  UNL1        0.0574
      5 CL         57.5011   93.9542   -6.7088 Cl      1  UNL1       -0.0823
      6 C          59.0861   93.9238   -4.6505 C.ar    1  UNL1        0.0126
      7 C          59.3657   93.5239   -3.2320 C.ar    1  UNL1        0.0164
      8 C          60.6712   93.8933   -2.5921 C.2     1  UNL1        0.0124
      9 C          60.9508   93.4934   -1.1737 C.2     1  UNL1        0.0386
     10 C          62.1381   93.7144   -0.2841 C.2     1  UNL1        0.0801
     11 C          63.3965   94.4406   -0.6572 C.3     1  UNL1        0.0538
     12 N          61.8461   93.0818    1.0443 N.2     1  UNL1       -0.1551
     13 N          60.4784   92.4698    0.9756 N.2     1  UNL1       -0.1469
     14 C          59.9250   92.7242   -0.3952 C.3     1  UNL1        0.2503
     15 N          58.6196   92.3548   -1.0351 N.2     1  UNL1       -0.2427
     16 C          58.3400   92.7547   -2.4535 C.ar    1  UNL1        0.0743
     17 C          61.6969   94.6626   -3.3707 C.3     1  UNL1        0.1724
     18 O          61.8061   96.1491   -3.2029 O.3     1  UNL1       -0.3742
     19 H          61.1460   96.4512   -2.5595 H       1  UNL1        0.2113
     20 C          62.6134   93.9452   -4.3170 C.ar    1  UNL1        0.0899
     21 C          63.6565   93.0077   -3.7850 C.ar    1  UNL1        0.0175
     22 C          64.5729   92.2904   -4.7314 C.ar    1  UNL1        0.0029
     23 C          64.4462   92.5107   -6.2098 C.ar    1  UNL1        0.0207
     24 C          63.4031   93.4482   -6.7417 C.ar    1  UNL1        0.0986
     25 N          62.4867   94.1654   -5.7953 N.ar    1  UNL1       -0.2454
@<TRIPOS>BOND
     1     1     2    1
     2     2     3   ar
     3     3     4   ar
     4     4     5    1
     5     4     6   ar
     6     6     7   ar
     7     7     8    2
     8     8    17    1
     9    17    18    1
    10    17    20    1
    11    20    21   ar
    12    21    22   ar
    13    22    23   ar
    14    23    24   ar
    15    24    25   ar
    16     8     9    1
    17     9    10    2
    18    10    11    1
    19    10    12    1
    20    12    13    2
    21    13    14    1
    22    14    15    1
    23    15    16    2
    24    16     2   ar
    25    16     7   ar
    26    25    20   ar
    27    14     9    1
    28    18    19    1
