@<TRIPOS>MOLECULE
*****
 33 35 0 0 0
SMALL
GASTEIGER

@<TRIPOS>ATOM
      1 N          63.6230   86.3877   16.0360 N.am    1  UNL1       -0.2723
      2 C          64.2691   86.8880   14.7780 C.3     1  UNL1        0.1152
      3 C          64.3681   88.3625   14.5210 C.3     1  UNL1        0.1153
      4 N          63.8211   89.3367   15.5218 N.am    1  UNL1       -0.2695
      5 C          63.9202   90.8112   15.2647 C.2     1  UNL1        0.2274
      6 O          63.3732   91.7854   16.2655 O.2     1  UNL1       -0.2748
      7 C          63.1751   88.8365   16.7797 C.3     1  UNL1        0.1793
      8 C          63.0760   87.3619   17.0369 C.2     1  UNL1        0.2462
      9 O          62.4300   86.8617   18.2948 O.2     1  UNL1       -0.2730
     10 C          63.5240   84.9133   16.2931 C.3     1  UNL1        0.1202
     11 C          63.1477   82.0481   12.8435 C.ar    1  UNL1        0.1387
     12 C          64.3523   82.9350   12.9539 C.ar    1  UNL1        0.0366
     13 C          64.4778   83.8900   14.1037 C.ar    1  UNL1        0.0005
     14 C          63.3985   83.9582   15.1432 C.ar    1  UNL1       -0.0021
     15 C          62.1939   83.0713   15.0329 C.ar    1  UNL1        0.0005
     16 C          62.0685   82.1163   13.8830 C.ar    1  UNL1        0.0366
     17 C          63.5406   81.4773   10.3396 C.3     1  UNL1        0.2525
     18 O          63.0222   81.0931   11.6937 O.3     1  UNL1       -0.4714
     19 C          64.5662   91.3114   14.0068 C.3     1  UNL1        0.1010
     20 C          65.7915   92.1731   14.0844 C.3     1  UNL1        0.0644
     21 N          65.9605   93.1359   15.2222 N.3     1  UNL1       -0.3215
     22 H          66.8434   93.6356   15.1164 H       1  UNL1        0.1188
     23 H          65.9636   92.6231   16.1039 H       1  UNL1        0.1188
     24 C          66.8480   92.0720   13.0243 C.3     1  UNL1        0.0447
     25 C          66.8210   93.0017   11.8475 C.ar    1  UNL1        0.0090
     26 C          66.0736   94.2993   11.9339 C.ar    1  UNL1        0.0300
     27 C          66.0465   95.2291   10.7571 C.ar    1  UNL1        0.1672
     28 F          65.2991   96.5267   10.8435 F       1  UNL1       -0.2018
     29 C          66.7669   94.8612    9.4939 C.ar    1  UNL1        0.1696
     30 F          66.7399   95.7909    8.3171 F       1  UNL1       -0.2017
     31 C          67.5144   93.5635    9.4075 C.ar    1  UNL1        0.0612
     32 C          67.5414   92.6338   10.5843 C.ar    1  UNL1        0.1386
     33 F          68.2888   91.3361   10.4979 F       1  UNL1       -0.2044
@<TRIPOS>BOND
     1    17    18    1
     2    18    11    1
     3    11    12   ar
     4    12    13   ar
     5    13    14   ar
     6    14    10    1
     7    10     1    1
     8     1     2    1
     9     2     3    1
    10     3     4    1
    11     4     5   am
    12     5     6    2
    13     5    19    1
    14    19    20    1
    15    20    21    1
    16    20    24    1
    17    24    25    1
    18    25    26   ar
    19    26    27   ar
    20    27    28    1
    21    27    29   ar
    22    29    30    1
    23    29    31   ar
    24    31    32   ar
    25    32    33    1
    26     4     7    1
    27     7     8    1
    28     8     9    2
    29    14    15   ar
    30    15    16   ar
    31    16    11   ar
    32     8     1   am
    33    32    25   ar
    34    21    22    1
    35    21    23    1
@<TRIPOS>MOLECULE
*****
 33 35 0 0 0
SMALL
GASTEIGER

@<TRIPOS>ATOM
      1 N          63.5771   86.3992   16.0532 N.am    1  UNL1       -0.2723
      2 C          64.2708   86.8907   14.8173 C.3     1  UNL1        0.1152
      3 C          64.4274   88.3636   14.5806 C.3     1  UNL1        0.1153
      4 N          63.8904   89.3450   15.5798 N.am    1  UNL1       -0.2695
      5 C          64.0471   90.8180   15.3431 C.2     1  UNL1        0.2274
      6 O          63.5101   91.7994   16.3423 O.2     1  UNL1       -0.2748
      7 C          63.1968   88.8536   16.8157 C.3     1  UNL1        0.1793
      8 C          63.0401   87.3807   17.0524 C.2     1  UNL1        0.2462
      9 O          62.3465   86.8893   18.2882 O.2     1  UNL1       -0.2730
     10 C          63.4205   84.9263   16.2899 C.3     1  UNL1        0.1202
     11 C          63.1721   82.1001   12.7970 C.ar    1  UNL1        0.1387
     12 C          62.1098   82.0790   13.8558 C.ar    1  UNL1        0.0366
     13 C          62.1926   83.0211   15.0201 C.ar    1  UNL1        0.0005
     14 C          63.3377   83.9842   15.1256 C.ar    1  UNL1       -0.0021
     15 C          64.3999   84.0053   14.0668 C.ar    1  UNL1        0.0005
     16 C          64.3171   83.0632   12.9024 C.ar    1  UNL1        0.0366
     17 C          63.6120   81.5766   10.2905 C.3     1  UNL1        0.2525
     18 O          63.0892   81.1580   11.6327 O.3     1  UNL1       -0.4714
     19 C          64.7407   91.3094   14.1073 C.3     1  UNL1        0.1010
     20 C          65.9987   92.1178   14.2245 C.3     1  UNL1        0.0644
     21 N          67.1763   91.5681   14.9736 N.3     1  UNL1       -0.3215
     22 H          67.9387   92.2455   14.9529 H       1  UNL1        0.1188
     23 H          67.4819   90.6989   14.5361 H       1  UNL1        0.1188
     24 C          66.0791   93.4759   13.5928 C.3     1  UNL1        0.0447
     25 C          66.5212   93.6145   12.1661 C.ar    1  UNL1        0.0090
     26 C          67.0274   92.4169   11.4182 C.ar    1  UNL1        0.0300
     27 C          67.4695   92.5554    9.9915 C.ar    1  UNL1        0.1672
     28 F          67.9758   91.3579    9.2435 F       1  UNL1       -0.2018
     29 C          67.4054   93.8916    9.3128 C.ar    1  UNL1        0.1696
     30 F          67.8475   94.0301    7.8862 F       1  UNL1       -0.2017
     31 C          66.8991   95.0892   10.0608 C.ar    1  UNL1        0.0612
     32 C          66.4571   94.9506   11.4875 C.ar    1  UNL1        0.1386
     33 F          65.9508   96.1482   12.2354 F       1  UNL1       -0.2044
@<TRIPOS>BOND
     1    17    18    1
     2    18    11    1
     3    11    12   ar
     4    12    13   ar
     5    13    14   ar
     6    14    10    1
     7    10     1    1
     8     1     2    1
     9     2     3    1
    10     3     4    1
    11     4     5   am
    12     5     6    2
    13     5    19    1
    14    19    20    1
    15    20    21    1
    16    20    24    1
    17    24    25    1
    18    25    26   ar
    19    26    27   ar
    20    27    28    1
    21    27    29   ar
    22    29    30    1
    23    29    31   ar
    24    31    32   ar
    25    32    33    1
    26     4     7    1
    27     7     8    1
    28     8     9    2
    29    14    15   ar
    30    15    16   ar
    31    16    11   ar
    32     8     1   am
    33    32    25   ar
    34    21    22    1
    35    21    23    1
@<TRIPOS>MOLECULE
*****
 33 35 0 0 0
SMALL
GASTEIGER

@<TRIPOS>ATOM
      1 N          64.3667   91.4345   12.1756 N.am    1  UNL1       -0.2723
      2 C          63.9637   91.2309   10.7451 C.3     1  UNL1        0.1152
      3 C          62.6976   90.4952   10.4201 C.3     1  UNL1        0.1153
      4 N          61.8344   89.9633   11.5255 N.am    1  UNL1       -0.2695
      5 C          60.5682   89.2276   11.2004 C.2     1  UNL1        0.2274
      6 O          59.7050   88.6956   12.3058 O.2     1  UNL1       -0.2748
      7 C          62.2374   90.1669   12.9559 C.3     1  UNL1        0.1793
      8 C          63.5036   90.9026   13.2810 C.2     1  UNL1        0.2462
      9 O          63.9065   91.1062   14.7114 O.2     1  UNL1       -0.2730
     10 C          65.6329   92.1702   12.5006 C.3     1  UNL1        0.1202
     11 C          67.2304   95.2666    9.6528 C.ar    1  UNL1        0.1387
     12 C          67.5116   93.8126    9.4147 C.ar    1  UNL1        0.0366
     13 C          66.9791   92.7805   10.3639 C.ar    1  UNL1        0.0005
     14 C          66.1654   93.2023   11.5513 C.ar    1  UNL1       -0.0021
     15 C          65.8843   94.6563   11.7895 C.ar    1  UNL1        0.0005
     16 C          66.4168   95.6885   10.8402 C.ar    1  UNL1        0.0366
     17 C          66.8797   96.8525    7.6251 C.3     1  UNL1        0.2525
     18 O          67.7630   96.2988    8.7036 O.3     1  UNL1       -0.4714
     19 C          60.1652   89.0239    9.7700 C.3     1  UNL1        0.1010
     20 C          60.4644   87.7238    9.0844 C.3     1  UNL1        0.0644
     21 N          59.3466   86.9018    8.5145 N.3     1  UNL1       -0.3215
     22 H          59.7285   86.0573    8.0887 H       1  UNL1        0.1188
     23 H          58.8514   87.4450    7.8074 H       1  UNL1        0.1188
     24 C          61.8815   87.2456    8.9686 C.3     1  UNL1        0.0447
     25 C          62.3369   86.0521    9.7547 C.ar    1  UNL1        0.0090
     26 C          62.0819   85.9849   11.2313 C.ar    1  UNL1        0.0300
     27 C          62.5373   84.7914   12.0176 C.ar    1  UNL1        0.1672
     28 F          62.2822   84.7242   13.4942 F       1  UNL1       -0.2018
     29 C          63.2477   83.6651   11.3271 C.ar    1  UNL1        0.1696
     30 F          63.7032   82.4716   12.1133 F       1  UNL1       -0.2017
     31 C          63.5028   83.7323    9.8505 C.ar    1  UNL1        0.0612
     32 C          63.0474   84.9258    9.0643 C.ar    1  UNL1        0.1386
     33 F          63.3024   84.9931    7.5877 F       1  UNL1       -0.2044
@<TRIPOS>BOND
     1    17    18    1
     2    18    11    1
     3    11    12   ar
     4    12    13   ar
     5    13    14   ar
     6    14    10    1
     7    10     1    1
     8     1     2    1
     9     2     3    1
    10     3     4    1
    11     4     5   am
    12     5     6    2
    13     5    19    1
    14    19    20    1
    15    20    21    1
    16    20    24    1
    17    24    25    1
    18    25    26   ar
    19    26    27   ar
    20    27    28    1
    21    27    29   ar
    22    29    30    1
    23    29    31   ar
    24    31    32   ar
    25    32    33    1
    26     4     7    1
    27     7     8    1
    28     8     9    2
    29    14    15   ar
    30    15    16   ar
    31    16    11   ar
    32     8     1   am
    33    32    25   ar
    34    21    22    1
    35    21    23    1
@<TRIPOS>MOLECULE
*****
 33 35 0 0 0
SMALL
GASTEIGER

@<TRIPOS>ATOM
      1 N          63.7568   89.8275   14.4189 N.am    1  UNL1       -0.2723
      2 C          64.1881   88.7448   13.4745 C.3     1  UNL1        0.1152
      3 C          64.2508   87.3215   13.9437 C.3     1  UNL1        0.1153
      4 N          63.8822   86.9807   15.3572 N.am    1  UNL1       -0.2695
      5 C          63.9449   85.5573   15.8263 C.2     1  UNL1        0.2274
      6 O          63.5763   85.2166   17.2398 O.2     1  UNL1       -0.2748
      7 C          63.4508   88.0634   16.3015 C.3     1  UNL1        0.1793
      8 C          63.3881   89.4868   15.8324 C.2     1  UNL1        0.2462
      9 O          62.9568   90.5694   16.7767 O.2     1  UNL1       -0.2730
     10 C          63.6941   91.2508   13.9497 C.3     1  UNL1        0.1202
     11 C          66.7899   92.8131   11.0818 C.ar    1  UNL1        0.1387
     12 C          67.1500   92.5768   12.5186 C.ar    1  UNL1        0.0366
     13 C          66.1180   92.0561   13.4746 C.ar    1  UNL1        0.0005
     14 C          64.7260   91.7716   12.9937 C.ar    1  UNL1       -0.0021
     15 C          64.3660   92.0078   11.5569 C.ar    1  UNL1        0.0005
     16 C          65.3979   92.5286   10.6010 C.ar    1  UNL1        0.0366
     17 C          68.6484   92.3763    9.3197 C.3     1  UNL1        0.2525
     18 O          67.8219   93.3338   10.1258 O.3     1  UNL1       -0.4714
     19 C          64.3762   84.4747   14.8820 C.3     1  UNL1        0.1010
     20 C          63.4123   83.3950   14.4883 C.3     1  UNL1        0.0644
     21 N          62.4529   82.8409   15.4995 N.3     1  UNL1       -0.3215
     22 H          61.8769   82.1211   15.0630 H       1  UNL1        0.1188
     23 H          61.8548   83.5905   15.8471 H       1  UNL1        0.1188
     24 C          63.4078   82.8693   13.0834 C.3     1  UNL1        0.0447
     25 C          63.0866   83.7862   11.9406 C.ar    1  UNL1        0.0090
     26 C          62.1714   84.9557   12.1517 C.ar    1  UNL1        0.0300
     27 C          61.8502   85.8727   11.0089 C.ar    1  UNL1        0.1672
     28 F          60.9350   87.0422   11.2200 F       1  UNL1       -0.2018
     29 C          62.4442   85.6201    9.6549 C.ar    1  UNL1        0.1696
     30 F          62.1231   86.5370    8.5121 F       1  UNL1       -0.2017
     31 C          63.3595   84.4505    9.4437 C.ar    1  UNL1        0.0612
     32 C          63.6807   83.5336   10.5866 C.ar    1  UNL1        0.1386
     33 F          64.5959   82.3642   10.3754 F       1  UNL1       -0.2044
@<TRIPOS>BOND
     1    17    18    1
     2    18    11    1
     3    11    12   ar
     4    12    13   ar
     5    13    14   ar
     6    14    10    1
     7    10     1    1
     8     1     2    1
     9     2     3    1
    10     3     4    1
    11     4     5   am
    12     5     6    2
    13     5    19    1
    14    19    20    1
    15    20    21    1
    16    20    24    1
    17    24    25    1
    18    25    26   ar
    19    26    27   ar
    20    27    28    1
    21    27    29   ar
    22    29    30    1
    23    29    31   ar
    24    31    32   ar
    25    32    33    1
    26     4     7    1
    27     7     8    1
    28     8     9    2
    29    14    15   ar
    30    15    16   ar
    31    16    11   ar
    32     8     1   am
    33    32    25   ar
    34    21    22    1
    35    21    23    1
@<TRIPOS>MOLECULE
*****
 33 35 0 0 0
SMALL
GASTEIGER

@<TRIPOS>ATOM
      1 N          64.2121   90.6244   14.7763 N.am    1  UNL1       -0.2723
      2 C          64.6009   89.3456   14.0953 C.3     1  UNL1        0.1152
      3 C          64.3244   88.0288   14.7582 C.3     1  UNL1        0.1153
      4 N          63.6592   87.9906   16.1021 N.am    1  UNL1       -0.2695
      5 C          63.3828   86.6736   16.7649 C.2     1  UNL1        0.2274
      6 O          62.7176   86.6354   18.1088 O.2     1  UNL1       -0.2748
      7 C          63.2705   89.2692   16.7831 C.3     1  UNL1        0.1793
      8 C          63.5469   90.5862   16.1202 C.2     1  UNL1        0.2462
      9 O          63.1581   91.8648   16.8012 O.2     1  UNL1       -0.2730
     10 C          64.4886   91.9412   14.1135 C.3     1  UNL1        0.1202
     11 C          67.8005   92.2852   11.0865 C.ar    1  UNL1        0.1387
     12 C          68.1230   91.9841   12.5201 C.ar    1  UNL1        0.0366
     13 C          67.0190   91.8695   13.5291 C.ar    1  UNL1        0.0005
     14 C          65.5926   92.0559   13.1045 C.ar    1  UNL1       -0.0021
     15 C          65.2701   92.3570   11.6709 C.ar    1  UNL1        0.0005
     16 C          66.3741   92.4716   10.6619 C.ar    1  UNL1        0.0366
     17 C          68.5775   92.6014    8.6276 C.3     1  UNL1        0.2525
     18 O          68.9045   92.3998   10.0775 O.3     1  UNL1       -0.4714
     19 C          63.7715   85.3950   16.0839 C.3     1  UNL1        0.1010
     20 C          62.7125   84.4316   15.6363 C.3     1  UNL1        0.0644
     21 N          61.3006   84.9025   15.4501 N.3     1  UNL1       -0.3215
     22 H          60.7192   84.1217   15.1455 H       1  UNL1        0.1188
     23 H          61.2780   85.6388   14.7445 H       1  UNL1        0.1188
     24 C          63.0654   82.9973   15.3750 C.3     1  UNL1        0.0447
     25 C          63.1227   82.4836   13.9669 C.ar    1  UNL1        0.0090
     26 C          63.9969   83.1638   12.9555 C.ar    1  UNL1        0.0300
     27 C          64.0543   82.6501   11.5473 C.ar    1  UNL1        0.1672
     28 F          64.9284   83.3303   10.5358 F       1  UNL1       -0.2018
     29 C          63.2375   81.4561   11.1507 C.ar    1  UNL1        0.1696
     30 F          63.2948   80.9424    9.7426 F       1  UNL1       -0.2017
     31 C          62.3633   80.7759   12.1622 C.ar    1  UNL1        0.0612
     32 C          62.3059   81.2896   13.5703 C.ar    1  UNL1        0.1386
     33 F          61.4318   80.6094   14.5818 F       1  UNL1       -0.2044
@<TRIPOS>BOND
     1    17    18    1
     2    18    11    1
     3    11    12   ar
     4    12    13   ar
     5    13    14   ar
     6    14    10    1
     7    10     1    1
     8     1     2    1
     9     2     3    1
    10     3     4    1
    11     4     5   am
    12     5     6    2
    13     5    19    1
    14    19    20    1
    15    20    21    1
    16    20    24    1
    17    24    25    1
    18    25    26   ar
    19    26    27   ar
    20    27    28    1
    21    27    29   ar
    22    29    30    1
    23    29    31   ar
    24    31    32   ar
    25    32    33    1
    26     4     7    1
    27     7     8    1
    28     8     9    2
    29    14    15   ar
    30    15    16   ar
    31    16    11   ar
    32     8     1   am
    33    32    25   ar
    34    21    22    1
    35    21    23    1
@<TRIPOS>MOLECULE
*****
 33 35 0 0 0
SMALL
GASTEIGER

@<TRIPOS>ATOM
      1 N          63.6331   85.9517   16.0019 N.am    1  UNL1       -0.2723
      2 C          64.2253   86.4805   14.7292 C.3     1  UNL1        0.1152
      3 C          64.2899   87.9599   14.4900 C.3     1  UNL1        0.1153
      4 N          63.7625   88.9105   15.5235 N.am    1  UNL1       -0.2695
      5 C          63.8271   90.3899   15.2842 C.2     1  UNL1        0.2274
      6 O          63.2997   91.3406   16.3177 O.2     1  UNL1       -0.2748
      7 C          63.1703   88.3818   16.7962 C.3     1  UNL1        0.1793
      8 C          63.1057   86.9023   17.0354 C.2     1  UNL1        0.2462
      9 O          62.5135   86.3736   18.3081 O.2     1  UNL1       -0.2730
     10 C          63.5685   84.4723   16.2411 C.3     1  UNL1        0.1202
     11 C          62.9912   81.6564   12.7789 C.ar    1  UNL1        0.1387
     12 C          61.9041   81.8239   13.7987 C.ar    1  UNL1        0.0366
     13 C          62.0965   82.7625   14.9528 C.ar    1  UNL1        0.0005
     14 C          63.3760   83.5337   15.0870 C.ar    1  UNL1       -0.0021
     15 C          64.4632   83.3662   14.0672 C.ar    1  UNL1        0.0005
     16 C          64.2707   82.4275   12.9131 C.ar    1  UNL1        0.0366
     17 C          63.3250   81.0799   10.2677 C.3     1  UNL1        0.2525
     18 O          62.7988   80.7177   11.6248 O.3     1  UNL1       -0.4714
     19 C          64.4193   90.9187   14.0115 C.3     1  UNL1        0.1010
     20 C          63.6126   90.9059   12.7470 C.3     1  UNL1        0.0644
     21 N          64.1692   91.5185   11.4961 N.3     1  UNL1       -0.3215
     22 H          63.4921   91.4211   10.7394 H       1  UNL1        0.1188
     23 H          65.0349   91.0432   11.2409 H       1  UNL1        0.1188
     24 C          62.2491   90.2806   12.7334 C.3     1  UNL1        0.0447
     25 C          61.7620   89.5704   11.5054 C.ar    1  UNL1        0.0090
     26 C          62.5354   88.4095   10.9539 C.ar    1  UNL1        0.0300
     27 C          62.0482   87.6992    9.7258 C.ar    1  UNL1        0.1672
     28 F          62.8216   86.5383    9.1743 F       1  UNL1       -0.2018
     29 C          60.7876   88.1499    9.0491 C.ar    1  UNL1        0.1696
     30 F          60.3004   87.4397    7.8211 F       1  UNL1       -0.2017
     31 C          60.0142   89.3109    9.6007 C.ar    1  UNL1        0.0612
     32 C          60.5014   90.0211   10.8287 C.ar    1  UNL1        0.1386
     33 F          59.7280   91.1820   11.3802 F       1  UNL1       -0.2044
@<TRIPOS>BOND
     1    17    18    1
     2    18    11    1
     3    11    12   ar
     4    12    13   ar
     5    13    14   ar
     6    14    10    1
     7    10     1    1
     8     1     2    1
     9     2     3    1
    10     3     4    1
    11     4     5   am
    12     5     6    2
    13     5    19    1
    14    19    20    1
    15    20    21    1
    16    20    24    1
    17    24    25    1
    18    25    26   ar
    19    26    27   ar
    20    27    28    1
    21    27    29   ar
    22    29    30    1
    23    29    31   ar
    24    31    32   ar
    25    32    33    1
    26     4     7    1
    27     7     8    1
    28     8     9    2
    29    14    15   ar
    30    15    16   ar
    31    16    11   ar
    32     8     1   am
    33    32    25   ar
    34    21    22    1
    35    21    23    1
@<TRIPOS>MOLECULE
*****
 33 35 0 0 0
SMALL
GASTEIGER

@<TRIPOS>ATOM
      1 N          59.9254   88.7335    8.2780 N.am    1  UNL1       -0.2723
      2 C          60.4005   89.9822    8.9600 C.3     1  UNL1        0.1152
      3 C          61.3277   89.8885   10.1354 C.3     1  UNL1        0.1153
      4 N          61.7798   88.5460   10.6288 N.am    1  UNL1       -0.2695
      5 C          62.7070   88.4523   11.8042 C.2     1  UNL1        0.2274
      6 O          63.1591   87.1098   12.2976 O.2     1  UNL1       -0.2748
      7 C          61.3047   87.2974    9.9468 C.3     1  UNL1        0.1793
      8 C          60.3775   87.3911    8.7714 C.2     1  UNL1        0.2462
      9 O          59.9024   86.1424    8.0894 O.2     1  UNL1       -0.2730
     10 C          58.9982   88.8273    7.1026 C.3     1  UNL1        0.1202
     11 C          59.4381   92.1972    4.1530 C.ar    1  UNL1        0.1387
     12 C          60.6453   91.4233    4.5931 C.ar    1  UNL1        0.0366
     13 C          60.4987   90.3000    5.5764 C.ar    1  UNL1        0.0005
     14 C          59.1448   89.9506    6.1194 C.ar    1  UNL1       -0.0021
     15 C          57.9376   90.7245    5.6793 C.ar    1  UNL1        0.0005
     16 C          58.0843   91.8478    4.6961 C.ar    1  UNL1        0.0366
     17 C          59.5773   93.0343    1.6974 C.3     1  UNL1        0.2525
     18 O          59.5847   93.3205    3.1698 O.3     1  UNL1       -0.4714
     19 C          63.1821   89.7009   12.4861 C.3     1  UNL1        0.1010
     20 C          63.6997   89.6368   13.8925 C.3     1  UNL1        0.0644
     21 N          64.0020   88.3086   14.5206 N.3     1  UNL1       -0.3215
     22 H          64.3418   88.4518   15.4717 H       1  UNL1        0.1188
     23 H          64.7161   87.8283   13.9731 H       1  UNL1        0.1188
     24 C          63.9149   90.9009   14.6709 C.3     1  UNL1        0.0447
     25 C          65.2915   91.4851   14.7870 C.ar    1  UNL1        0.0090
     26 C          66.2976   91.2561   13.6983 C.ar    1  UNL1        0.0300
     27 C          67.6744   91.8402   13.8143 C.ar    1  UNL1        0.1672
     28 F          68.6804   91.6112   12.7256 F       1  UNL1       -0.2018
     29 C          68.0450   92.6533   15.0191 C.ar    1  UNL1        0.1696
     30 F          69.4217   93.2374   15.1352 F       1  UNL1       -0.2017
     31 C          67.0388   92.8823   16.1079 C.ar    1  UNL1        0.0612
     32 C          65.6621   92.2981   15.9918 C.ar    1  UNL1        0.1386
     33 F          64.6561   92.5271   17.0805 F       1  UNL1       -0.2044
@<TRIPOS>BOND
     1    17    18    1
     2    18    11    1
     3    11    12   ar
     4    12    13   ar
     5    13    14   ar
     6    14    10    1
     7    10     1    1
     8     1     2    1
     9     2     3    1
    10     3     4    1
    11     4     5   am
    12     5     6    2
    13     5    19    1
    14    19    20    1
    15    20    21    1
    16    20    24    1
    17    24    25    1
    18    25    26   ar
    19    26    27   ar
    20    27    28    1
    21    27    29   ar
    22    29    30    1
    23    29    31   ar
    24    31    32   ar
    25    32    33    1
    26     4     7    1
    27     7     8    1
    28     8     9    2
    29    14    15   ar
    30    15    16   ar
    31    16    11   ar
    32     8     1   am
    33    32    25   ar
    34    21    22    1
    35    21    23    1
@<TRIPOS>MOLECULE
*****
 33 35 0 0 0
SMALL
GASTEIGER

@<TRIPOS>ATOM
      1 N          63.7811   88.4632   15.3719 N.am    1  UNL1       -0.2723
      2 C          64.2310   87.9511   14.0357 C.3     1  UNL1        0.1152
      3 C          64.2878   86.4744   13.7788 C.3     1  UNL1        0.1153
      4 N          63.8946   85.5097   14.8580 N.am    1  UNL1       -0.2695
      5 C          63.9514   84.0329   14.6011 C.2     1  UNL1        0.2274
      6 O          63.5582   83.0682   15.6803 O.2     1  UNL1       -0.2748
      7 C          63.4447   86.0217   16.1942 C.3     1  UNL1        0.1793
      8 C          63.3879   87.4985   16.4512 C.2     1  UNL1        0.2462
      9 O          62.9380   88.0105   17.7873 O.2     1  UNL1       -0.2730
     10 C          63.7243   89.9399   15.6289 C.3     1  UNL1        0.1202
     11 C          66.0498   92.7696   13.0144 C.ar    1  UNL1        0.1387
     12 C          66.4777   92.5358   14.4330 C.ar    1  UNL1        0.0366
     13 C          65.7025   91.5926   15.3044 C.ar    1  UNL1        0.0005
     14 C          64.4995   90.8831   14.7574 C.ar    1  UNL1       -0.0021
     15 C          64.0716   91.1169   13.3389 C.ar    1  UNL1        0.0005
     16 C          64.8467   92.0602   12.4674 C.ar    1  UNL1        0.0366
     17 C          66.1250   94.8511   11.4615 C.3     1  UNL1        0.2525
     18 O          66.8249   93.7128   12.1430 O.3     1  UNL1       -0.4714
     19 C          64.4013   83.5209   13.2649 C.3     1  UNL1        0.1010
     20 C          63.3871   83.1163   12.2365 C.3     1  UNL1        0.0644
     21 N          62.2448   82.2231   12.6206 N.3     1  UNL1       -0.3215
     22 H          61.6579   82.0517   11.8041 H       1  UNL1        0.1188
     23 H          61.6909   82.6736   13.3490 H       1  UNL1        0.1188
     24 C          63.5150   83.6049   10.8241 C.3     1  UNL1        0.0447
     25 C          62.6911   84.7672   10.3550 C.ar    1  UNL1        0.0090
     26 C          61.8890   85.5642   11.3405 C.ar    1  UNL1        0.0300
     27 C          61.0650   86.7266   10.8715 C.ar    1  UNL1        0.1672
     28 F          60.2630   87.5236   11.8570 F       1  UNL1       -0.2018
     29 C          61.0431   87.0918    9.4168 C.ar    1  UNL1        0.1696
     30 F          60.2192   88.2541    8.9477 F       1  UNL1       -0.2017
     31 C          61.8452   86.2947    8.4312 C.ar    1  UNL1        0.0612
     32 C          62.6692   85.1324    8.9003 C.ar    1  UNL1        0.1386
     33 F          63.4712   84.3354    7.9147 F       1  UNL1       -0.2044
@<TRIPOS>BOND
     1    17    18    1
     2    18    11    1
     3    11    12   ar
     4    12    13   ar
     5    13    14   ar
     6    14    10    1
     7    10     1    1
     8     1     2    1
     9     2     3    1
    10     3     4    1
    11     4     5   am
    12     5     6    2
    13     5    19    1
    14    19    20    1
    15    20    21    1
    16    20    24    1
    17    24    25    1
    18    25    26   ar
    19    26    27   ar
    20    27    28    1
    21    27    29   ar
    22    29    30    1
    23    29    31   ar
    24    31    32   ar
    25    32    33    1
    26     4     7    1
    27     7     8    1
    28     8     9    2
    29    14    15   ar
    30    15    16   ar
    31    16    11   ar
    32     8     1   am
    33    32    25   ar
    34    21    22    1
    35    21    23    1
@<TRIPOS>MOLECULE
*****
 33 35 0 0 0
SMALL
GASTEIGER

@<TRIPOS>ATOM
      1 N          63.0297   89.9947   11.9006 N.am    1  UNL1       -0.2723
      2 C          63.0379   88.7637   12.7577 C.3     1  UNL1        0.1152
      3 C          62.7107   87.4290   12.1565 C.3     1  UNL1        0.1153
      4 N          62.3752   87.3253   10.6982 N.am    1  UNL1       -0.2695
      5 C          62.0480   85.9905   10.0970 C.2     1  UNL1        0.2274
      6 O          61.7126   85.8867    8.6387 O.2     1  UNL1       -0.2748
      7 C          62.3670   88.5562    9.8411 C.3     1  UNL1        0.1793
      8 C          62.6942   89.8910   10.4423 C.2     1  UNL1        0.2462
      9 O          62.6860   91.1219    9.5852 O.2     1  UNL1       -0.2730
     10 C          63.3569   91.3294   12.5018 C.3     1  UNL1        0.1202
     11 C          67.5424   92.1990   13.9070 C.ar    1  UNL1        0.1387
     12 C          66.5863   91.4705   14.8042 C.ar    1  UNL1        0.0366
     13 C          65.1911   91.1807   14.3358 C.ar    1  UNL1        0.0005
     14 C          64.7521   91.6193   12.9702 C.ar    1  UNL1       -0.0021
     15 C          65.7082   92.3478   12.0731 C.ar    1  UNL1        0.0005
     16 C          67.1034   92.6376   12.5415 C.ar    1  UNL1        0.0366
     17 C          69.1583   93.2547   15.6462 C.3     1  UNL1        0.2525
     18 O          68.9376   92.4889   14.3755 O.3     1  UNL1       -0.4714
     19 C          62.0563   84.7596   10.9541 C.3     1  UNL1        0.1010
     20 C          63.2364   83.8341   10.9261 C.3     1  UNL1        0.0644
     21 N          63.9411   83.5563    9.6314 N.3     1  UNL1       -0.3215
     22 H          64.7136   82.9110    9.7964 H       1  UNL1        0.1188
     23 H          64.3033   84.4291    9.2473 H       1  UNL1        0.1188
     24 C          63.7118   83.1863   12.1927 C.3     1  UNL1        0.0447
     25 C          63.6068   83.9212   13.4961 C.ar    1  UNL1        0.0090
     26 C          64.4877   85.1057   13.7623 C.ar    1  UNL1        0.0300
     27 C          64.3827   85.8406   15.0658 C.ar    1  UNL1        0.1672
     28 F          65.2637   87.0251   15.3320 F       1  UNL1       -0.2018
     29 C          63.3968   85.3910   16.1030 C.ar    1  UNL1        0.1696
     30 F          63.2918   86.1259   17.4064 F       1  UNL1       -0.2017
     31 C          62.5159   84.2064   15.8367 C.ar    1  UNL1        0.0612
     32 C          62.6209   83.4716   14.5333 C.ar    1  UNL1        0.1386
     33 F          61.7399   82.2871   14.2672 F       1  UNL1       -0.2044
@<TRIPOS>BOND
     1    17    18    1
     2    18    11    1
     3    11    12   ar
     4    12    13   ar
     5    13    14   ar
     6    14    10    1
     7    10     1    1
     8     1     2    1
     9     2     3    1
    10     3     4    1
    11     4     5   am
    12     5     6    2
    13     5    19    1
    14    19    20    1
    15    20    21    1
    16    20    24    1
    17    24    25    1
    18    25    26   ar
    19    26    27   ar
    20    27    28    1
    21    27    29   ar
    22    29    30    1
    23    29    31   ar
    24    31    32   ar
    25    32    33    1
    26     4     7    1
    27     7     8    1
    28     8     9    2
    29    14    15   ar
    30    15    16   ar
    31    16    11   ar
    32     8     1   am
    33    32    25   ar
    34    21    22    1
    35    21    23    1
