@<TRIPOS>MOLECULE
*****
 54 60 0 0 0
SMALL
GASTEIGER

@<TRIPOS>ATOM
      1 C          60.8622   88.7213    9.5366 C.2     1  UNL1        0.2201
      2 N          60.0388   89.6200    8.6623 N.2     1  UNL1       -0.0470
      3 C          59.5323   89.1225    7.3411 C.cat   1  UNL1        0.4657
      4 N          59.8492   87.7261    6.8940 N.2     1  UNL1        0.0297
      5 C          60.6726   86.8274    7.7682 C.2     1  UNL1        0.3701
      6 N          61.1422   85.4135    7.5945 N.2     1  UNL1       -0.0340
      7 C          61.9389   85.0372    8.8084 C.2     1  UNL1        0.2322
      8 C          61.9617   86.2186    9.7324 C.2     1  UNL1        0.0456
      9 C          61.1791   87.3250    9.0895 C.3     1  UNL1        0.2120
     10 C          62.8532   89.9303   12.6413 C.ar    1  UNL1        0.0727
     11 C          61.4430   90.0391   13.1409 C.ar    1  UNL1        0.0251
     12 C          60.5256   89.5994   12.0387 C.ar    1  UNL1        0.0827
     13 N          61.3687   89.2190   10.8579 N.ar    1  UNL1       -0.2780
     14 C          62.8072   89.4235   11.2303 C.ar    1  UNL1        0.0870
     15 N          64.6037   91.6789   13.4341 N.am    1  UNL1       -0.2809
     16 C          64.0918   90.2690   13.4166 C.2     1  UNL1        0.2510
     17 O          64.8187   89.1977   14.1745 O.2     1  UNL1       -0.2698
     18 H          64.1267   92.3819   12.9368 H       1  UNL1        0.1552
     19 C          67.1689   92.0834   13.5124 C.ar    1  UNL1       -0.0090
     20 C          68.4075   92.4220   14.2877 C.ar    1  UNL1       -0.0031
     21 C          68.3196   92.6947   15.7601 C.ar    1  UNL1       -0.0006
     22 C          66.9930   92.6287   16.4572 C.ar    1  UNL1       -0.0031
     23 C          65.7544   92.2901   15.6818 C.ar    1  UNL1       -0.0090
     24 C          65.8424   92.0175   14.2095 C.ar    1  UNL1        0.0425
     25 C          66.8404   92.8636   11.0561 C.3     1  UNL1        0.0051
     26 C          67.2569   91.8108   12.0400 C.3     1  UNL1        0.0276
     27 C          64.4279   92.2242   16.3788 C.3     1  UNL1        0.0276
     28 C          63.8085   90.8935   16.6882 C.3     1  UNL1        0.0051
     29 N          58.7088   90.0212    6.4668 N.pl3   1  UNL1       -0.1895
     30 H          57.7346   90.0769    6.5970 H       1  UNL1        0.2524
     31 C          59.3699   90.8351    5.3941 C.ar    1  UNL1        0.1435
     32 C          60.8038   90.5800    5.0354 C.ar    1  UNL1        0.0356
     33 C          61.4648   91.3939    3.9627 C.ar    1  UNL1        0.0174
     34 C          60.6919   92.4629    3.2487 C.ar    1  UNL1        0.0511
     35 C          59.2579   92.7180    3.6074 C.ar    1  UNL1        0.0541
     36 C          58.5969   91.9041    4.6801 C.ar    1  UNL1        0.1684
     37 N          61.3528   93.2768    2.1760 N.pl3   1  UNL1       -0.3072
     38 C          60.5997   94.3879    1.5064 C.3     1  UNL1        0.0932
     39 C          61.2606   95.2019    0.4337 C.3     1  UNL1        0.0497
     40 C          62.6745   94.9047    0.0306 C.3     1  UNL1        0.1063
     41 O          62.3765   96.0509   -0.8900 O.3     1  UNL1       -0.3853
     42 C          63.4275   93.7936    0.7002 C.3     1  UNL1        0.0497
     43 C          62.7667   92.9797    1.7729 C.3     1  UNL1        0.0932
     44 H          61.4690   96.3587   -0.7400 H       1  UNL1        0.2103
     45 C          63.9850   95.0057   -0.6923 C.3     1  UNL1        0.0994
     46 N          64.0834   94.5853   -2.1288 N.3     1  UNL1       -0.2683
     47 C          63.4819   93.2848   -2.5726 C.3     1  UNL1        0.0897
     48 C          63.5804   92.8645   -4.0092 C.3     1  UNL1        0.0897
     49 N          64.2802   93.7446   -5.0019 N.3     1  UNL1       -0.2691
     50 C          64.3787   93.3243   -6.4384 C.3     1  UNL1        0.0897
     51 C          64.8817   95.0451   -4.5581 C.3     1  UNL1        0.0897
     52 C          64.7833   95.4654   -3.1216 C.3     1  UNL1        0.0897
     53 O          57.1629   92.1592    5.0388 O.3     1  UNL1       -0.4687
     54 C          56.1635   91.0426    4.9739 C.3     1  UNL1        0.2526
@<TRIPOS>BOND
     1    25    26    1
     2    26    19    1
     3    19    20   ar
     4    20    21   ar
     5    21    22   ar
     6    22    23   ar
     7    23    27    1
     8    27    28    1
     9    23    24   ar
    10    24    15    1
    11    15    16   am
    12    16    17    2
    13    16    10    1
    14    10    11   ar
    15    11    12   ar
    16    12    13   ar
    17    13     1    1
    18     1     2    2
    19     2     3    1
    20     3    29    1
    21    29    31    1
    22    31    32   ar
    23    32    33   ar
    24    33    34   ar
    25    34    37    1
    26    37    38    1
    27    38    39    1
    28    39    40    1
    29    40    41    1
    30    40    45    1
    31    45    46    1
    32    46    47    1
    33    47    48    1
    34    48    49    1
    35    49    50    1
    36    49    51    1
    37    51    52    1
    38    40    42    1
    39    42    43    1
    40    34    35   ar
    41    35    36   ar
    42    36    53    1
    43    53    54    1
    44     3     4    2
    45     4     5    1
    46     5     6    2
    47     6     7    1
    48     7     8    2
    49     8     9    1
    50    13    14   ar
    51    24    19   ar
    52    14    10   ar
    53     9     1    1
    54    36    31   ar
    55     9     5    1
    56    43    37    1
    57    52    46    1
    58    15    18    1
    59    29    30    1
    60    41    44    1
@<TRIPOS>MOLECULE
*****
 54 60 0 0 0
SMALL
GASTEIGER

@<TRIPOS>ATOM
      1 C          61.2458   87.1142    9.1323 C.2     1  UNL1        0.2201
      2 N          60.3958   88.2870    8.7425 N.2     1  UNL1       -0.0470
      3 C          59.6725   88.2852    7.4285 C.cat   1  UNL1        0.4657
      4 N          59.7990   87.1105    6.5042 N.2     1  UNL1        0.0297
      5 C          60.6490   85.9377    6.8941 C.2     1  UNL1        0.3701
      6 N          60.9617   84.6482    6.1945 N.2     1  UNL1       -0.0340
      7 C          61.8783   83.8530    7.0763 C.2     1  UNL1        0.2322
      8 C          62.1322   84.6511    8.3207 C.2     1  UNL1        0.0456
      9 C          61.3724   85.9395    8.2081 C.3     1  UNL1        0.2120
     10 C          63.1953   87.8576   12.4052 C.ar    1  UNL1        0.0727
     11 C          62.9693   86.3801   12.5317 C.ar    1  UNL1        0.0251
     12 C          62.2116   85.9218   11.3211 C.ar    1  UNL1        0.0827
     13 N          61.9692   87.1160   10.4464 N.ar    1  UNL1       -0.2780
     14 C          62.5772   88.3124   11.1164 C.ar    1  UNL1        0.0870
     15 N          63.8023   90.2203   13.2991 N.am    1  UNL1       -0.2809
     16 C          63.9134   88.7274   13.3940 C.2     1  UNL1        0.2510
     17 O          64.7426   88.1045   14.4778 O.2     1  UNL1       -0.2698
     18 H          63.2581   90.6292   12.5878 H       1  UNL1        0.1552
     19 C          64.0889   91.1068   15.7244 C.ar    1  UNL1       -0.0090
     20 C          64.8070   91.9766   16.7132 C.ar    1  UNL1       -0.0031
     21 C          65.9566   92.8299   16.2654 C.ar    1  UNL1       -0.0006
     22 C          66.3880   92.8133   14.8289 C.ar    1  UNL1       -0.0031
     23 C          65.6699   91.9434   13.8402 C.ar    1  UNL1       -0.0090
     24 C          64.5204   91.0902   14.2879 C.ar    1  UNL1        0.0425
     25 C          63.1875   89.0580   17.0433 C.3     1  UNL1        0.0051
     26 C          62.9394   90.2536   16.1722 C.3     1  UNL1        0.0276
     27 C          66.1014   91.9268   12.4037 C.3     1  UNL1        0.0276
     28 C          65.6297   92.9988   11.4665 C.3     1  UNL1        0.0051
     29 N          58.8224   89.4581    7.0387 N.pl3   1  UNL1       -0.1895
     30 H          57.9858   89.6425    7.5237 H       1  UNL1        0.2524
     31 C          59.2472   90.3500    5.9099 C.ar    1  UNL1        0.1435
     32 C          60.7021   90.4938    5.5744 C.ar    1  UNL1        0.0356
     33 C          61.1269   91.3856    4.4455 C.ar    1  UNL1        0.0174
     34 C          60.0967   92.1336    3.6522 C.ar    1  UNL1        0.0511
     35 C          58.6419   91.9898    3.9878 C.ar    1  UNL1        0.0541
     36 C          58.2171   91.0979    5.1166 C.ar    1  UNL1        0.1684
     37 N          60.5214   93.0255    2.5234 N.pl3   1  UNL1       -0.3072
     38 C          59.4895   93.6465    1.6293 C.3     1  UNL1        0.0932
     39 C          59.9141   94.5384    0.5005 C.3     1  UNL1        0.0497
     40 C          61.3706   94.8092    0.2658 C.3     1  UNL1        0.1063
     41 O          60.7724   95.6224   -0.8437 O.3     1  UNL1       -0.3853
     42 C          62.4026   94.1882    1.1599 C.3     1  UNL1        0.0497
     43 C          61.9780   93.2963    2.2887 C.3     1  UNL1        0.0932
     44 H          59.8060   95.5426   -0.8182 H       1  UNL1        0.2103
     45 C          62.6194   95.3625   -0.3543 C.3     1  UNL1        0.0994
     46 N          63.0440   94.9078   -1.7192 N.3     1  UNL1       -0.2683
     47 C          63.3910   95.9182   -2.7721 C.3     1  UNL1        0.0897
     48 C          63.8156   95.4634   -4.1370 C.3     1  UNL1        0.0897
     49 N          63.8931   93.9983   -4.4491 N.3     1  UNL1       -0.2691
     50 C          64.3176   93.5436   -5.8139 C.3     1  UNL1        0.0897
     51 C          63.5460   92.9878   -3.3962 C.3     1  UNL1        0.0897
     52 C          63.1214   93.4426   -2.0313 C.3     1  UNL1        0.0897
     53 O          56.7622   90.9541    5.4521 O.3     1  UNL1       -0.4687
     54 C          55.7373   91.7545    4.7045 C.3     1  UNL1        0.2526
@<TRIPOS>BOND
     1    25    26    1
     2    26    19    1
     3    19    20   ar
     4    20    21   ar
     5    21    22   ar
     6    22    23   ar
     7    23    27    1
     8    27    28    1
     9    23    24   ar
    10    24    15    1
    11    15    16   am
    12    16    17    2
    13    16    10    1
    14    10    11   ar
    15    11    12   ar
    16    12    13   ar
    17    13     1    1
    18     1     2    2
    19     2     3    1
    20     3    29    1
    21    29    31    1
    22    31    32   ar
    23    32    33   ar
    24    33    34   ar
    25    34    37    1
    26    37    38    1
    27    38    39    1
    28    39    40    1
    29    40    41    1
    30    40    45    1
    31    45    46    1
    32    46    47    1
    33    47    48    1
    34    48    49    1
    35    49    50    1
    36    49    51    1
    37    51    52    1
    38    40    42    1
    39    42    43    1
    40    34    35   ar
    41    35    36   ar
    42    36    53    1
    43    53    54    1
    44     3     4    2
    45     4     5    1
    46     5     6    2
    47     6     7    1
    48     7     8    2
    49     8     9    1
    50    13    14   ar
    51    24    19   ar
    52    14    10   ar
    53     9     1    1
    54    36    31   ar
    55     9     5    1
    56    43    37    1
    57    52    46    1
    58    15    18    1
    59    29    30    1
    60    41    44    1
