@<TRIPOS>MOLECULE
*****
 35 38 0 0 0
SMALL
GASTEIGER

@<TRIPOS>ATOM
      1 C          64.8832   91.7551   11.9549 C.ar    1  UNL1        0.1535
      2 C          63.9322   91.5141   10.8203 C.ar    1  UNL1        0.0370
      3 C          62.9942   90.3444   10.8636 C.ar    1  UNL1        0.0936
      4 CL         62.0431   90.1032    9.7289 Cl      1  UNL1       -0.0790
      5 C          63.0072   89.4157   12.0415 C.ar    1  UNL1        0.1581
      6 C          63.9582   89.6568   13.1761 C.ar    1  UNL1        0.0694
      7 C          64.8962   90.8265   13.1328 C.ar    1  UNL1        0.1620
      8 F          65.8473   91.0677   14.2675 F       1  UNL1       -0.2026
      9 O          66.2415   92.5365   10.5251 O.2     1  UNL1       -0.1498
     10 S          65.8213   92.9249   11.9116 S.O2    1  UNL1        0.0769
     11 O          65.4010   93.3133   13.2982 O.2     1  UNL1       -0.1498
     12 N          66.7593   94.0946   11.8683 N.pl3   1  UNL1       -0.1984
     13 H          67.4077   94.2328   12.5962 H       1  UNL1        0.1753
     14 C          66.7094   95.0537   10.7161 C.ar    1  UNL1        0.1542
     15 C          65.5841   95.9935   10.3992 C.ar    1  UNL1        0.0725
     16 S          65.9554   96.7620    9.1657 S.2     1  UNL1       -0.0625
     17 C          67.3102   96.2972    8.7202 C.ar    1  UNL1        0.1360
     18 N          67.7763   95.2413    9.6784 N.ar    1  UNL1       -0.2203
     19 O          62.0692   88.2460   12.0848 O.3     1  UNL1       -0.4526
     20 C          62.6113   86.8547   12.2273 C.ar    1  UNL1        0.1453
     21 C          63.4648   86.4997   13.4087 C.ar    1  UNL1        0.0374
     22 C          64.0069   85.1083   13.5511 C.ar    1  UNL1        0.0070
     23 C          63.6957   84.0721   12.5123 C.ar    1  UNL1        0.0716
     24 C          62.8422   84.4271   11.3310 C.ar    1  UNL1        0.0069
     25 C          62.3001   85.8184   11.1884 C.ar    1  UNL1        0.0361
     26 C          61.4466   86.1734   10.0071 C.ar    1  UNL1        0.0255
     27 C          61.7623   85.6042    8.6557 C.ar    1  UNL1        0.0242
     28 C          60.9089   85.9592    7.4743 C.ar    1  UNL1        0.1222
     29 N          59.7397   86.8834    7.6443 N.ar    1  UNL1       -0.1464
     30 N          59.4240   87.4526    8.9958 N.ar    1  UNL1       -0.1464
     31 C          60.2775   87.0976   10.1772 C.ar    1  UNL1        0.1222
     32 C          64.2378   82.6808   12.6549 C.3     1  UNL1        0.4186
     33 F          64.7800   81.2894   12.7974 F       1  UNL1       -0.1659
     34 F          64.6523   82.6947   11.2134 F       1  UNL1       -0.1659
     35 F          63.8233   82.6669   14.0963 F       1  UNL1       -0.1659
@<TRIPOS>BOND
     1     9    10    2
     2    10    11    2
     3    10    12    1
     4    12    14    1
     5    14    15   ar
     6    15    16   ar
     7    16    17   ar
     8    17    18   ar
     9    10     1    1
    10     1     2   ar
    11     2     3   ar
    12     3     4    1
    13     3     5   ar
    14     5    19    1
    15    19    20    1
    16    20    21   ar
    17    21    22   ar
    18    22    23   ar
    19    23    32    1
    20    32    33    1
    21    32    34    1
    22    32    35    1
    23    23    24   ar
    24    24    25   ar
    25    25    26    1
    26    26    27   ar
    27    27    28   ar
    28    28    29   ar
    29    29    30   ar
    30    30    31   ar
    31     5     6   ar
    32     6     7   ar
    33     7     8    1
    34    18    14   ar
    35     7     1   ar
    36    25    20   ar
    37    31    26   ar
    38    12    13    1
@<TRIPOS>MOLECULE
*****
 35 38 0 0 0
SMALL
GASTEIGER

@<TRIPOS>ATOM
      1 C          63.7373   86.1367   14.6939 C.ar    1  UNL1        0.1535
      2 C          63.6889   87.0969   15.8452 C.ar    1  UNL1        0.0370
      3 C          63.5372   88.5672   15.5897 C.ar    1  UNL1        0.0936
      4 CL         63.4888   89.5275   16.7410 Cl      1  UNL1       -0.0790
      5 C          63.4339   89.0772   14.1828 C.ar    1  UNL1        0.1581
      6 C          63.4823   88.1169   13.0315 C.ar    1  UNL1        0.0694
      7 C          63.6340   86.6467   13.2871 C.ar    1  UNL1        0.1620
      8 F          63.6824   85.6863   12.1357 F       1  UNL1       -0.2026
      9 O          62.4506   84.5908   15.3681 O.2     1  UNL1       -0.1498
     10 S          63.8890   84.6664   14.9494 S.O2    1  UNL1        0.0769
     11 O          65.3273   84.7419   14.5307 O.2     1  UNL1       -0.1498
     12 N          64.0406   83.1961   15.2049 N.pl3   1  UNL1       -0.1984
     13 H          64.4987   82.8825   16.0180 H       1  UNL1        0.1753
     14 C          63.4943   82.2037   14.2217 C.ar    1  UNL1        0.1542
     15 C          63.7631   82.1850   12.7461 C.ar    1  UNL1        0.0725
     16 S          63.0182   81.0255   12.1539 S.2     1  UNL1       -0.0625
     17 C          62.2889   80.3276   13.2635 C.ar    1  UNL1        0.1360
     18 N          62.5832   81.0558   14.5416 N.ar    1  UNL1       -0.2203
     19 O          63.2822   90.5475   13.9273 O.3     1  UNL1       -0.4526
     20 C          64.1706   91.2311   12.9306 C.ar    1  UNL1        0.1453
     21 C          65.4354   91.8967   13.3857 C.ar    1  UNL1        0.0374
     22 C          66.3237   92.5804   12.3888 C.ar    1  UNL1        0.0070
     23 C          65.9472   92.5983   10.9370 C.ar    1  UNL1        0.0716
     24 C          64.6824   91.9326   10.4819 C.ar    1  UNL1        0.0069
     25 C          63.7941   91.2490   11.4786 C.ar    1  UNL1        0.0361
     26 C          62.5293   90.5833   11.0235 C.ar    1  UNL1        0.0255
     27 C          62.5868   89.4707   10.0193 C.ar    1  UNL1        0.0242
     28 C          61.3220   88.8050    9.5642 C.ar    1  UNL1        0.1222
     29 N          59.9996   89.2520   10.1133 N.ar    1  UNL1       -0.1464
     30 N          59.9421   90.3647   11.1176 N.ar    1  UNL1       -0.1464
     31 C          61.2069   91.0304   11.5727 C.ar    1  UNL1        0.1222
     32 C          66.8356   93.2819    9.9403 C.3     1  UNL1        0.4186
     33 F          67.7240   93.9654    8.9435 F       1  UNL1       -0.1659
     34 F          66.0183   94.5329   10.0699 F       1  UNL1       -0.1659
     35 F          67.6528   92.0308    9.8106 F       1  UNL1       -0.1659
@<TRIPOS>BOND
     1     9    10    2
     2    10    11    2
     3    10    12    1
     4    12    14    1
     5    14    15   ar
     6    15    16   ar
     7    16    17   ar
     8    17    18   ar
     9    10     1    1
    10     1     2   ar
    11     2     3   ar
    12     3     4    1
    13     3     5   ar
    14     5    19    1
    15    19    20    1
    16    20    21   ar
    17    21    22   ar
    18    22    23   ar
    19    23    32    1
    20    32    33    1
    21    32    34    1
    22    32    35    1
    23    23    24   ar
    24    24    25   ar
    25    25    26    1
    26    26    27   ar
    27    27    28   ar
    28    28    29   ar
    29    29    30   ar
    30    30    31   ar
    31     5     6   ar
    32     6     7   ar
    33     7     8    1
    34    18    14   ar
    35     7     1   ar
    36    25    20   ar
    37    31    26   ar
    38    12    13    1
@<TRIPOS>MOLECULE
*****
 35 38 0 0 0
SMALL
GASTEIGER

@<TRIPOS>ATOM
      1 C          60.4058   87.3784    8.8117 C.ar    1  UNL1        0.1535
      2 C          61.4911   86.5181    8.2356 C.ar    1  UNL1        0.0370
      3 C          62.4714   85.8382    9.1448 C.ar    1  UNL1        0.0936
      4 CL         63.5568   84.9779    8.5687 Cl      1  UNL1       -0.0790
      5 C          62.3663   86.0186   10.6302 C.ar    1  UNL1        0.1581
      6 C          61.2810   86.8788   11.2064 C.ar    1  UNL1        0.0694
      7 C          60.3007   87.5587   10.2971 C.ar    1  UNL1        0.1620
      8 F          59.2153   88.4190   10.8733 F       1  UNL1       -0.2026
      9 O          59.8770   89.3939    8.4145 O.2     1  UNL1       -0.1498
     10 S          59.4254   88.0583    7.9025 S.O2    1  UNL1        0.0769
     11 O          58.9739   86.7227    7.3905 O.2     1  UNL1       -0.1498
     12 N          58.4452   88.7383    6.9933 N.pl3   1  UNL1       -0.1984
     13 H          57.5058   88.4443    6.9742 H       1  UNL1        0.1753
     14 C          58.8962   89.8661    6.1131 C.ar    1  UNL1        0.1542
     15 C          58.0190   90.9332    5.5283 C.ar    1  UNL1        0.0725
     16 S          58.8842   91.8514    4.7170 S.2     1  UNL1       -0.0625
     17 C          60.2962   91.3519    4.8005 C.ar    1  UNL1        0.1360
     18 N          60.3036   90.1249    5.6634 N.ar    1  UNL1       -0.2203
     19 O          63.3466   85.3386   11.5395 O.3     1  UNL1       -0.4526
     20 C          63.1289   83.9106   11.9437 C.ar    1  UNL1        0.1453
     21 C          63.0463   82.8392   10.8971 C.ar    1  UNL1        0.0374
     22 C          62.8285   81.4112   11.3014 C.ar    1  UNL1        0.0070
     23 C          62.6935   81.0546   12.7521 C.ar    1  UNL1        0.0716
     24 C          62.7762   82.1260   13.7986 C.ar    1  UNL1        0.0069
     25 C          62.9939   83.5540   13.3944 C.ar    1  UNL1        0.0361
     26 C          63.0766   84.6254   14.4410 C.ar    1  UNL1        0.0255
     27 C          64.0890   85.7245   14.3107 C.ar    1  UNL1        0.0242
     28 C          64.1717   86.7959   15.3573 C.ar    1  UNL1        0.1222
     29 N          63.2420   86.7682   16.5340 N.ar    1  UNL1       -0.1464
     30 N          62.2295   85.6691   16.6643 N.ar    1  UNL1       -0.1464
     31 C          62.1468   84.5977   15.6178 C.ar    1  UNL1        0.1222
     32 C          62.4758   79.6266   13.1562 C.3     1  UNL1        0.4186
     33 F          62.2581   78.1985   13.5605 F       1  UNL1       -0.1659
     34 F          62.6630   79.1949   11.7320 F       1  UNL1       -0.1659
     35 F          62.2886   80.0583   14.5805 F       1  UNL1       -0.1659
@<TRIPOS>BOND
     1     9    10    2
     2    10    11    2
     3    10    12    1
     4    12    14    1
     5    14    15   ar
     6    15    16   ar
     7    16    17   ar
     8    17    18   ar
     9    10     1    1
    10     1     2   ar
    11     2     3   ar
    12     3     4    1
    13     3     5   ar
    14     5    19    1
    15    19    20    1
    16    20    21   ar
    17    21    22   ar
    18    22    23   ar
    19    23    32    1
    20    32    33    1
    21    32    34    1
    22    32    35    1
    23    23    24   ar
    24    24    25   ar
    25    25    26    1
    26    26    27   ar
    27    27    28   ar
    28    28    29   ar
    29    29    30   ar
    30    30    31   ar
    31     5     6   ar
    32     6     7   ar
    33     7     8    1
    34    18    14   ar
    35     7     1   ar
    36    25    20   ar
    37    31    26   ar
    38    12    13    1
@<TRIPOS>MOLECULE
*****
 35 38 0 0 0
SMALL
GASTEIGER

@<TRIPOS>ATOM
      1 C          63.9381   90.8310   12.3490 C.ar    1  UNL1        0.1535
      2 C          62.8845   90.9528   11.2884 C.ar    1  UNL1        0.0370
      3 C          61.9939   89.7863   10.9785 C.ar    1  UNL1        0.0936
      4 CL         60.9402   89.9081    9.9178 Cl      1  UNL1       -0.0790
      5 C          62.1570   88.4980   11.7293 C.ar    1  UNL1        0.1581
      6 C          63.2106   88.3762   12.7900 C.ar    1  UNL1        0.0694
      7 C          64.1012   89.5427   13.0998 C.ar    1  UNL1        0.1620
      8 F          65.1548   89.4209   14.1605 F       1  UNL1       -0.2026
      9 O          65.2618   92.0482   11.2237 O.2     1  UNL1       -0.1498
     10 S          64.8288   91.9975   12.6589 S.O2    1  UNL1        0.0769
     11 O          64.3959   91.9469   14.0942 O.2     1  UNL1       -0.1498
     12 N          65.7194   93.1640   12.9688 N.pl3   1  UNL1       -0.1984
     13 H          65.5051   94.0557   12.6108 H       1  UNL1        0.1753
     14 C          66.9367   92.9719   13.8241 C.ar    1  UNL1        0.1542
     15 C          67.2059   93.6434   15.1381 C.ar    1  UNL1        0.0725
     16 S          68.5339   93.1611   15.6417 S.2     1  UNL1       -0.0625
     17 C          69.0856   92.1915   14.6388 C.ar    1  UNL1        0.1360
     18 N          68.0984   92.0746   13.5154 N.ar    1  UNL1       -0.2203
     19 O          61.2663   87.3314   11.4194 O.3     1  UNL1       -0.4526
     20 C          61.4012   86.6118   10.1103 C.ar    1  UNL1        0.1453
     21 C          60.7675   87.1783    8.8743 C.ar    1  UNL1        0.0374
     22 C          60.9024   86.4587    7.5651 C.ar    1  UNL1        0.0070
     23 C          61.6709   85.1726    7.4919 C.ar    1  UNL1        0.0716
     24 C          62.3045   84.6061    8.7279 C.ar    1  UNL1        0.0069
     25 C          62.1697   85.3257   10.0370 C.ar    1  UNL1        0.0361
     26 C          62.8033   84.7592   11.2730 C.ar    1  UNL1        0.0255
     27 C          63.9549   83.8053   11.1557 C.ar    1  UNL1        0.0242
     28 C          64.5885   83.2388   12.3916 C.ar    1  UNL1        0.1222
     29 N          64.0705   83.6263   13.7450 N.ar    1  UNL1       -0.1464
     30 N          62.9188   84.5802   13.8624 N.ar    1  UNL1       -0.1464
     31 C          62.2852   85.1467   12.6264 C.ar    1  UNL1        0.1222
     32 C          61.8058   84.4530    6.1827 C.3     1  UNL1        0.4186
     33 F          61.9407   83.7334    4.8735 F       1  UNL1       -0.1659
     34 F          60.3258   84.2095    6.1641 F       1  UNL1       -0.1659
     35 F          63.2858   84.6965    6.2014 F       1  UNL1       -0.1659
@<TRIPOS>BOND
     1     9    10    2
     2    10    11    2
     3    10    12    1
     4    12    14    1
     5    14    15   ar
     6    15    16   ar
     7    16    17   ar
     8    17    18   ar
     9    10     1    1
    10     1     2   ar
    11     2     3   ar
    12     3     4    1
    13     3     5   ar
    14     5    19    1
    15    19    20    1
    16    20    21   ar
    17    21    22   ar
    18    22    23   ar
    19    23    32    1
    20    32    33    1
    21    32    34    1
    22    32    35    1
    23    23    24   ar
    24    24    25   ar
    25    25    26    1
    26    26    27   ar
    27    27    28   ar
    28    28    29   ar
    29    29    30   ar
    30    30    31   ar
    31     5     6   ar
    32     6     7   ar
    33     7     8    1
    34    18    14   ar
    35     7     1   ar
    36    25    20   ar
    37    31    26   ar
    38    12    13    1
@<TRIPOS>MOLECULE
*****
 35 38 0 0 0
SMALL
GASTEIGER

@<TRIPOS>ATOM
      1 C          64.6917   91.6122   12.1988 C.ar    1  UNL1        0.1535
      2 C          63.6783   91.5275   11.0962 C.ar    1  UNL1        0.0370
      3 C          62.7427   90.3572   11.0258 C.ar    1  UNL1        0.0936
      4 CL         61.7292   90.2725    9.9232 Cl      1  UNL1       -0.0790
      5 C          62.8204   89.2717   12.0581 C.ar    1  UNL1        0.1581
      6 C          63.8339   89.3564   13.1607 C.ar    1  UNL1        0.0694
      7 C          64.7695   90.5266   13.2310 C.ar    1  UNL1        0.1620
      8 F          65.7830   90.6114   14.3336 F       1  UNL1       -0.2026
      9 O          65.9611   92.6030   10.8179 O.2     1  UNL1       -0.1498
     10 S          65.6274   92.7825   12.2692 S.O2    1  UNL1        0.0769
     11 O          65.2937   92.9621   13.7205 O.2     1  UNL1       -0.1498
     12 N          66.5631   93.9528   12.3395 N.pl3   1  UNL1       -0.1984
     13 H          67.1169   94.0927   13.1414 H       1  UNL1        0.1753
     14 C          66.6550   94.9099   11.1881 C.ar    1  UNL1        0.1542
     15 C          65.8137   96.1360   10.9915 C.ar    1  UNL1        0.0725
     16 S          66.2431   96.7927    9.7131 S.2     1  UNL1       -0.0625
     17 C          67.3499   95.9724    9.1196 C.ar    1  UNL1        0.1360
     18 N          67.6044   94.8086   10.0312 N.ar    1  UNL1       -0.2203
     19 O          61.8847   88.1013   11.9877 O.3     1  UNL1       -0.4526
     20 C          61.7881   87.2931   10.7278 C.ar    1  UNL1        0.1453
     21 C          61.0992   87.8619    9.5228 C.ar    1  UNL1        0.0374
     22 C          61.0026   87.0536    8.2629 C.ar    1  UNL1        0.0070
     23 C          61.5947   85.6766    8.2080 C.ar    1  UNL1        0.0716
     24 C          62.2836   85.1078    9.4129 C.ar    1  UNL1        0.0069
     25 C          62.3802   85.9160   10.6728 C.ar    1  UNL1        0.0361
     26 C          63.0690   85.3472   11.8778 C.ar    1  UNL1        0.0255
     27 C          63.3019   86.2073   13.0844 C.ar    1  UNL1        0.0242
     28 C          63.9907   85.6385   14.2893 C.ar    1  UNL1        0.1222
     29 N          64.4467   84.2095   14.2878 N.ar    1  UNL1       -0.1464
     30 N          64.2138   83.3493   13.0812 N.ar    1  UNL1       -0.1464
     31 C          63.5250   83.9181   11.8762 C.ar    1  UNL1        0.1222
     32 C          61.4981   84.8684    6.9481 C.3     1  UNL1        0.4186
     33 F          61.4013   84.0601    5.6881 F       1  UNL1       -0.1659
     34 F          62.9871   84.6876    6.9498 F       1  UNL1       -0.1659
     35 F          60.0090   85.0491    6.9464 F       1  UNL1       -0.1659
@<TRIPOS>BOND
     1     9    10    2
     2    10    11    2
     3    10    12    1
     4    12    14    1
     5    14    15   ar
     6    15    16   ar
     7    16    17   ar
     8    17    18   ar
     9    10     1    1
    10     1     2   ar
    11     2     3   ar
    12     3     4    1
    13     3     5   ar
    14     5    19    1
    15    19    20    1
    16    20    21   ar
    17    21    22   ar
    18    22    23   ar
    19    23    32    1
    20    32    33    1
    21    32    34    1
    22    32    35    1
    23    23    24   ar
    24    24    25   ar
    25    25    26    1
    26    26    27   ar
    27    27    28   ar
    28    28    29   ar
    29    29    30   ar
    30    30    31   ar
    31     5     6   ar
    32     6     7   ar
    33     7     8    1
    34    18    14   ar
    35     7     1   ar
    36    25    20   ar
    37    31    26   ar
    38    12    13    1
@<TRIPOS>MOLECULE
*****
 35 38 0 0 0
SMALL
GASTEIGER

@<TRIPOS>ATOM
      1 C          60.2999   88.4911    8.9413 C.ar    1  UNL1        0.1535
      2 C          61.1246   87.2550    9.1463 C.ar    1  UNL1        0.0370
      3 C          61.9882   87.1234   10.3656 C.ar    1  UNL1        0.0936
      4 CL         62.8130   85.8873   10.5706 Cl      1  UNL1       -0.0790
      5 C          62.0272   88.2277   11.3799 C.ar    1  UNL1        0.1581
      6 C          61.2025   89.4638   11.1749 C.ar    1  UNL1        0.0694
      7 C          60.3388   89.5954    9.9556 C.ar    1  UNL1        0.1620
      8 F          59.5140   90.8315    9.7506 F       1  UNL1       -0.2026
      9 O          58.6867   87.3857    8.1193 O.2     1  UNL1       -0.1498
     10 S          59.4362   88.6228    7.7220 S.O2    1  UNL1        0.0769
     11 O          60.1857   89.8598    7.3246 O.2     1  UNL1       -0.1498
     12 N          58.5725   88.7545    6.5027 N.pl3   1  UNL1       -0.1984
     13 H          58.0490   87.9837    6.1847 H       1  UNL1        0.1753
     14 C          58.5064   90.0605    5.7678 C.ar    1  UNL1        0.1542
     15 C          59.6676   90.7897    5.1596 C.ar    1  UNL1        0.0725
     16 S          59.1463   92.0465    4.5281 S.2     1  UNL1       -0.0625
     17 C          57.6629   92.0940    4.7460 C.ar    1  UNL1        0.1360
     18 N          57.2674   90.8666    5.5123 N.ar    1  UNL1       -0.2203
     19 O          62.8909   88.0960   12.5993 O.3     1  UNL1       -0.4526
     20 C          63.7093   89.2623   13.0682 C.ar    1  UNL1        0.1453
     21 C          64.0261   90.3841   12.1242 C.ar    1  UNL1        0.0374
     22 C          64.8446   91.5504   12.5932 C.ar    1  UNL1        0.0070
     23 C          65.3461   91.5949   14.0061 C.ar    1  UNL1        0.0716
     24 C          65.0292   90.4731   14.9501 C.ar    1  UNL1        0.0069
     25 C          64.2108   89.3068   14.4812 C.ar    1  UNL1        0.0361
     26 C          63.8940   88.1850   15.4252 C.ar    1  UNL1        0.0255
     27 C          63.1107   88.4555   16.6755 C.ar    1  UNL1        0.0242
     28 C          62.7938   87.3337   17.6195 C.ar    1  UNL1        0.1222
     29 N          63.2602   85.9414   17.3132 N.ar    1  UNL1       -0.1464
     30 N          64.0435   85.6708   16.0629 N.ar    1  UNL1       -0.1464
     31 C          64.3604   86.7926   15.1189 C.ar    1  UNL1        0.1222
     32 C          66.1645   92.7612   14.4751 C.3     1  UNL1        0.4186
     33 F          66.9829   93.9276   14.9440 F       1  UNL1       -0.1659
     34 F          66.4724   92.0327   15.7496 F       1  UNL1       -0.1659
     35 F          65.8566   93.4897   13.2006 F       1  UNL1       -0.1659
@<TRIPOS>BOND
     1     9    10    2
     2    10    11    2
     3    10    12    1
     4    12    14    1
     5    14    15   ar
     6    15    16   ar
     7    16    17   ar
     8    17    18   ar
     9    10     1    1
    10     1     2   ar
    11     2     3   ar
    12     3     4    1
    13     3     5   ar
    14     5    19    1
    15    19    20    1
    16    20    21   ar
    17    21    22   ar
    18    22    23   ar
    19    23    32    1
    20    32    33    1
    21    32    34    1
    22    32    35    1
    23    23    24   ar
    24    24    25   ar
    25    25    26    1
    26    26    27   ar
    27    27    28   ar
    28    28    29   ar
    29    29    30   ar
    30    30    31   ar
    31     5     6   ar
    32     6     7   ar
    33     7     8    1
    34    18    14   ar
    35     7     1   ar
    36    25    20   ar
    37    31    26   ar
    38    12    13    1
@<TRIPOS>MOLECULE
*****
 35 38 0 0 0
SMALL
GASTEIGER

@<TRIPOS>ATOM
      1 C          64.4015   90.9276   12.6247 C.ar    1  UNL1        0.1535
      2 C          63.5106   90.9380   11.4180 C.ar    1  UNL1        0.0370
      3 C          62.6849   89.7309   11.0850 C.ar    1  UNL1        0.0936
      4 CL         61.7938   89.7413    9.8783 Cl      1  UNL1       -0.0790
      5 C          62.7501   88.5133   11.9586 C.ar    1  UNL1        0.1581
      6 C          63.6411   88.5028   13.1653 C.ar    1  UNL1        0.0694
      7 C          64.4668   89.7100   13.4983 C.ar    1  UNL1        0.1620
      8 F          65.3578   89.6996   14.7050 F       1  UNL1       -0.2026
      9 O          64.7308   92.0840   14.3723 O.2     1  UNL1       -0.1498
     10 S          65.2273   92.1347   12.9578 S.O2    1  UNL1        0.0769
     11 O          65.7237   92.1855   11.5433 O.2     1  UNL1       -0.1498
     12 N          66.0530   93.3419   13.2909 N.pl3   1  UNL1       -0.1984
     13 H          65.7896   94.2275   12.9510 H       1  UNL1        0.1753
     14 C          67.2800   93.1997   14.1419 C.ar    1  UNL1        0.1542
     15 C          67.4909   93.8131   15.4944 C.ar    1  UNL1        0.0725
     16 S          68.8528   93.4116   15.9782 S.2     1  UNL1       -0.0625
     17 C          69.4837   92.5500   14.9247 C.ar    1  UNL1        0.1360
     18 N          68.5116   92.4190   13.7898 N.ar    1  UNL1       -0.2203
     19 O          61.9243   87.3061   11.6255 O.3     1  UNL1       -0.4526
     20 C          62.3832   85.9429   12.0510 C.ar    1  UNL1        0.1453
     21 C          62.7469   85.6872   13.4836 C.ar    1  UNL1        0.0374
     22 C          63.2058   84.3239   13.9091 C.ar    1  UNL1        0.0070
     23 C          63.3008   83.2164   12.9020 C.ar    1  UNL1        0.0716
     24 C          62.9371   83.4720   11.4694 C.ar    1  UNL1        0.0069
     25 C          62.4783   84.8352   11.0439 C.ar    1  UNL1        0.0361
     26 C          62.1145   85.0909    9.6113 C.ar    1  UNL1        0.0255
     27 C          60.8770   85.8709    9.2795 C.ar    1  UNL1        0.0242
     28 C          60.5133   86.1266    7.8469 C.ar    1  UNL1        0.1222
     29 N          61.3870   85.6022    6.7462 N.ar    1  UNL1       -0.1464
     30 N          62.6245   84.8221    7.0780 N.ar    1  UNL1       -0.1464
     31 C          62.9883   84.5665    8.5106 C.ar    1  UNL1        0.1222
     32 C          63.7597   81.8532   13.3275 C.3     1  UNL1        0.4186
     33 F          64.2186   80.4899   13.7530 F       1  UNL1       -0.1659
     34 F          62.5785   81.7421   14.2453 F       1  UNL1       -0.1659
     35 F          64.9408   81.9642   12.4097 F       1  UNL1       -0.1659
@<TRIPOS>BOND
     1     9    10    2
     2    10    11    2
     3    10    12    1
     4    12    14    1
     5    14    15   ar
     6    15    16   ar
     7    16    17   ar
     8    17    18   ar
     9    10     1    1
    10     1     2   ar
    11     2     3   ar
    12     3     4    1
    13     3     5   ar
    14     5    19    1
    15    19    20    1
    16    20    21   ar
    17    21    22   ar
    18    22    23   ar
    19    23    32    1
    20    32    33    1
    21    32    34    1
    22    32    35    1
    23    23    24   ar
    24    24    25   ar
    25    25    26    1
    26    26    27   ar
    27    27    28   ar
    28    28    29   ar
    29    29    30   ar
    30    30    31   ar
    31     5     6   ar
    32     6     7   ar
    33     7     8    1
    34    18    14   ar
    35     7     1   ar
    36    25    20   ar
    37    31    26   ar
    38    12    13    1
@<TRIPOS>MOLECULE
*****
 35 38 0 0 0
SMALL
GASTEIGER

@<TRIPOS>ATOM
      1 C          64.8238   91.4565   12.6830 C.ar    1  UNL1        0.1535
      2 C          64.0246   91.5908   11.4208 C.ar    1  UNL1        0.0370
      3 C          62.9987   90.5547   11.0688 C.ar    1  UNL1        0.0936
      4 CL         62.1995   90.6890    9.8066 Cl      1  UNL1       -0.0790
      5 C          62.7719   89.3842   11.9791 C.ar    1  UNL1        0.1581
      6 C          63.5711   89.2499   13.2414 C.ar    1  UNL1        0.0694
      7 C          64.5970   90.2860   13.5933 C.ar    1  UNL1        0.1620
      8 F          65.3962   90.1517   14.8556 F       1  UNL1       -0.2026
      9 O          65.2370   92.6369   14.3964 O.2     1  UNL1       -0.1498
     10 S          65.8498   92.4926   13.0350 S.O2    1  UNL1        0.0769
     11 O          66.4626   92.3483   11.6735 O.2     1  UNL1       -0.1498
     12 N          66.8757   93.5287   13.3870 N.pl3   1  UNL1       -0.1984
     13 H          66.9587   94.3443   12.8419 H       1  UNL1        0.1753
     14 C          67.7752   93.3221   14.5695 C.ar    1  UNL1        0.1542
     15 C          68.1248   92.0027   15.1915 C.ar    1  UNL1        0.0725
     16 S          69.0487   92.2638   16.3440 S.2     1  UNL1       -0.0625
     17 C          69.2702   93.7447   16.4343 C.ar    1  UNL1        0.1360
     18 N          68.4831   94.3987   15.3375 N.ar    1  UNL1       -0.2203
     19 O          61.7459   88.3481   11.6272 O.3     1  UNL1       -0.4526
     20 C          62.1582   86.9184   11.4378 C.ar    1  UNL1        0.1453
     21 C          63.0368   86.2503   12.4536 C.ar    1  UNL1        0.0374
     22 C          63.4490   84.8205   12.2642 C.ar    1  UNL1        0.0070
     23 C          62.9828   84.0589   11.0591 C.ar    1  UNL1        0.0716
     24 C          62.1042   84.7269   10.0433 C.ar    1  UNL1        0.0069
     25 C          61.6919   86.1566   10.2326 C.ar    1  UNL1        0.0361
     26 C          60.8134   86.8247    9.2168 C.ar    1  UNL1        0.0255
     27 C          60.6351   88.3138    9.2428 C.ar    1  UNL1        0.0242
     28 C          59.7566   88.9818    8.2270 C.ar    1  UNL1        0.1222
     29 N          59.0563   88.1608    7.1852 N.ar    1  UNL1       -0.1464
     30 N          59.2345   86.6716    7.1592 N.ar    1  UNL1       -0.1464
     31 C          60.1130   86.0035    8.1750 C.ar    1  UNL1        0.1222
     32 C          63.3950   82.6292   10.8698 C.3     1  UNL1        0.4186
     33 F          63.8073   81.1993   10.6805 F       1  UNL1       -0.1659
     34 F          64.5288   83.0722    9.9933 F       1  UNL1       -0.1659
     35 F          62.2613   82.1862   11.7463 F       1  UNL1       -0.1659
@<TRIPOS>BOND
     1     9    10    2
     2    10    11    2
     3    10    12    1
     4    12    14    1
     5    14    15   ar
     6    15    16   ar
     7    16    17   ar
     8    17    18   ar
     9    10     1    1
    10     1     2   ar
    11     2     3   ar
    12     3     4    1
    13     3     5   ar
    14     5    19    1
    15    19    20    1
    16    20    21   ar
    17    21    22   ar
    18    22    23   ar
    19    23    32    1
    20    32    33    1
    21    32    34    1
    22    32    35    1
    23    23    24   ar
    24    24    25   ar
    25    25    26    1
    26    26    27   ar
    27    27    28   ar
    28    28    29   ar
    29    29    30   ar
    30    30    31   ar
    31     5     6   ar
    32     6     7   ar
    33     7     8    1
    34    18    14   ar
    35     7     1   ar
    36    25    20   ar
    37    31    26   ar
    38    12    13    1
@<TRIPOS>MOLECULE
*****
 35 38 0 0 0
SMALL
GASTEIGER

@<TRIPOS>ATOM
      1 C          62.7905   88.1181   11.6688 C.ar    1  UNL1        0.1535
      2 C          62.6196   89.2223   10.6681 C.ar    1  UNL1        0.0370
      3 C          63.1757   90.5859   10.9536 C.ar    1  UNL1        0.0936
      4 CL         63.0049   91.6902    9.9529 Cl      1  UNL1       -0.0790
      5 C          63.9026   90.8452   12.2399 C.ar    1  UNL1        0.1581
      6 C          64.0734   89.7410   13.2406 C.ar    1  UNL1        0.0694
      7 C          63.5173   88.3774   12.9551 C.ar    1  UNL1        0.1620
      8 F          63.6881   87.2731   13.9558 F       1  UNL1       -0.2026
      9 O          63.1282   86.1696   12.4364 O.2     1  UNL1       -0.1498
     10 S          62.2344   86.7545   11.3834 S.O2    1  UNL1        0.0769
     11 O          61.3406   87.3394   10.3303 O.2     1  UNL1       -0.1498
     12 N          61.6784   85.3910   11.0979 N.pl3   1  UNL1       -0.1984
     13 H          60.7153   85.2777   10.9282 H       1  UNL1        0.1753
     14 C          62.5898   84.1999   11.0711 C.ar    1  UNL1        0.1542
     15 C          62.6015   83.0761   12.0645 C.ar    1  UNL1        0.0725
     16 S          63.6685   82.1051   11.6535 S.2     1  UNL1       -0.0625
     17 C          64.3162   82.6289   10.4060 C.ar    1  UNL1        0.1360
     18 N          63.6495   83.9236   10.0461 N.ar    1  UNL1       -0.2203
     19 O          64.4586   92.2088   12.5254 O.3     1  UNL1       -0.4526
     20 C          65.6054   92.3665   13.4792 C.ar    1  UNL1        0.1453
     21 C          65.3983   92.1326   14.9463 C.ar    1  UNL1        0.0374
     22 C          66.5452   92.2903   15.9002 C.ar    1  UNL1        0.0070
     23 C          67.8991   92.6818   15.3870 C.ar    1  UNL1        0.0716
     24 C          68.1063   92.9157   13.9199 C.ar    1  UNL1        0.0069
     25 C          66.9595   92.7580   12.9660 C.ar    1  UNL1        0.0361
     26 C          67.1666   92.9919   11.4989 C.ar    1  UNL1        0.0255
     27 C          68.0245   92.0531   10.7036 C.ar    1  UNL1        0.0242
     28 C          68.2317   92.2869    9.2365 C.ar    1  UNL1        0.1222
     29 N          67.5810   93.4596    8.5647 N.ar    1  UNL1       -0.1464
     30 N          66.7230   94.3985    9.3601 N.ar    1  UNL1       -0.1464
     31 C          66.5159   94.1646   10.8272 C.ar    1  UNL1        0.1222
     32 C          69.0459   92.8395   16.3409 C.3     1  UNL1        0.4186
     33 F          70.1928   92.9973   17.2948 F       1  UNL1       -0.1659
     34 F          68.5795   91.6334   17.1010 F       1  UNL1       -0.1659
     35 F          69.5123   94.0456   15.5808 F       1  UNL1       -0.1659
@<TRIPOS>BOND
     1     9    10    2
     2    10    11    2
     3    10    12    1
     4    12    14    1
     5    14    15   ar
     6    15    16   ar
     7    16    17   ar
     8    17    18   ar
     9    10     1    1
    10     1     2   ar
    11     2     3   ar
    12     3     4    1
    13     3     5   ar
    14     5    19    1
    15    19    20    1
    16    20    21   ar
    17    21    22   ar
    18    22    23   ar
    19    23    32    1
    20    32    33    1
    21    32    34    1
    22    32    35    1
    23    23    24   ar
    24    24    25   ar
    25    25    26    1
    26    26    27   ar
    27    27    28   ar
    28    28    29   ar
    29    29    30   ar
    30    30    31   ar
    31     5     6   ar
    32     6     7   ar
    33     7     8    1
    34    18    14   ar
    35     7     1   ar
    36    25    20   ar
    37    31    26   ar
    38    12    13    1
