@<TRIPOS>MOLECULE
*****
 24 27 0 0 0
SMALL
GASTEIGER

@<TRIPOS>ATOM
      1 C          62.2180   89.5098    9.8978 C.3     1  UNL1        0.0024
      2 C          62.7855   89.0521   11.2087 C.3     1  UNL1        0.0247
      3 C          62.2568   87.9406   10.3514 C.3     1  UNL1        0.0023
      4 C          62.3265   86.5224   10.8348 C.3     1  UNL1        0.0004
      5 C          62.9250   86.2156   12.1756 C.3     1  UNL1        0.0036
      6 C          63.4537   87.3271   13.0330 C.3     1  UNL1        0.0031
      7 C          64.0521   87.0203   14.3738 C.3     1  UNL1        0.0335
      8 C          64.1219   85.6021   14.8572 C.3     1  UNL1        0.1289
      9 O          64.7203   85.2953   16.1980 O.3     1  UNL1       -0.3804
     10 C          63.5932   84.4906   13.9999 C.2     1  UNL1       -0.0157
     11 C          63.6629   83.0724   14.4833 C.2     1  UNL1        0.0312
     12 C          63.1342   81.9609   13.6259 C.2     1  UNL1        0.1726
     13 O          63.2040   80.5426   14.1094 O.2     1  UNL1       -0.2914
     14 C          62.5358   82.2677   12.2851 C.3     1  UNL1        0.0695
     15 C          62.4660   83.6859   11.8017 C.3     1  UNL1        0.0119
     16 C          62.9947   84.7973   12.6591 C.3     1  UNL1        0.0179
     17 C          62.3963   85.1041   11.3182 C.3     1  UNL1        0.0041
     18 C          63.3839   88.7454   12.5496 C.3     1  UNL1        0.0024
     19 C          63.8209   90.0396   13.1692 C.3     1  UNL1        0.0026
     20 C          63.4925   91.1462   12.2114 C.3     1  UNL1        0.0292
     21 C          62.8526   90.5359   10.9997 C.3     1  UNL1        0.1104
     22 O          62.3653   91.2791    9.7913 O.3     1  UNL1       -0.3845
     23 H          64.6878   84.3388   16.3554 H       1  UNL1        0.2108
     24 H          62.5267   92.2283    9.9086 H       1  UNL1        0.2103
@<TRIPOS>BOND
     1     2     1    1
     2     2     3    1
     3     3     4    1
     4     5     4    1
     5     5     6    1
     6     6     7    1
     7     7     8    1
     8     8     9    1
     9     8    10    1
    10    10    11    2
    11    11    12    1
    12    12    13    2
    13    12    14    1
    14    14    15    1
    15    15    16    1
    16    16    17    1
    17     6    18    1
    18    18    19    1
    19    19    20    1
    20    20    21    1
    21    21    22    1
    22    18     2    1
    23    21     2    1
    24    16     5    1
    25    16    10    1
    26     9    23    1
    27    22    24    1
@<TRIPOS>MOLECULE
*****
 24 27 0 0 0
SMALL
GASTEIGER

@<TRIPOS>ATOM
      1 C          63.7348   83.9824   13.6269 C.3     1  UNL1        0.0024
      2 C          63.5957   85.4478   13.3381 C.3     1  UNL1        0.0247
      3 C          62.8638   84.5633   12.3725 C.3     1  UNL1        0.0023
      4 C          62.0838   85.1692   11.2436 C.3     1  UNL1        0.0004
      5 C          62.0356   86.6595   11.0802 C.3     1  UNL1        0.0036
      6 C          62.7674   87.5439   12.0457 C.3     1  UNL1        0.0031
      7 C          62.7192   89.0342   11.8822 C.3     1  UNL1        0.0335
      8 C          61.9392   89.6401   10.7533 C.3     1  UNL1        0.1289
      9 O          61.8910   91.1304   10.5899 O.3     1  UNL1       -0.3804
     10 C          61.2074   88.7557    9.7878 C.2     1  UNL1       -0.0157
     11 C          60.4274   89.3615    8.6588 C.2     1  UNL1        0.0312
     12 C          59.6956   88.4771    7.6933 C.2     1  UNL1        0.1726
     13 O          58.9156   89.0830    6.5643 O.2     1  UNL1       -0.2914
     14 C          59.7438   86.9868    7.8568 C.3     1  UNL1        0.0695
     15 C          60.5238   86.3809    8.9857 C.3     1  UNL1        0.0119
     16 C          61.2556   87.2654    9.9512 C.3     1  UNL1        0.0179
     17 C          61.3038   85.7751   10.1146 C.3     1  UNL1        0.0041
     18 C          63.5475   86.9381   13.1747 C.3     1  UNL1        0.0024
     19 C          64.3626   87.5515   14.2741 C.3     1  UNL1        0.0026
     20 C          64.9147   86.4404   15.1171 C.3     1  UNL1        0.0292
     21 C          64.4406   85.1402   14.5386 C.3     1  UNL1        0.1104
     22 O          64.7562   83.7726   15.0677 O.3     1  UNL1       -0.3845
     23 H          61.3485   91.3536    9.8174 H       1  UNL1        0.2108
     24 H          65.3213   83.8518   15.8521 H       1  UNL1        0.2103
@<TRIPOS>BOND
     1     2     1    1
     2     2     3    1
     3     3     4    1
     4     5     4    1
     5     5     6    1
     6     6     7    1
     7     7     8    1
     8     8     9    1
     9     8    10    1
    10    10    11    2
    11    11    12    1
    12    12    13    2
    13    12    14    1
    14    14    15    1
    15    15    16    1
    16    16    17    1
    17     6    18    1
    18    18    19    1
    19    19    20    1
    20    20    21    1
    21    21    22    1
    22    18     2    1
    23    21     2    1
    24    16     5    1
    25    16    10    1
    26     9    23    1
    27    22    24    1
@<TRIPOS>MOLECULE
*****
 24 27 0 0 0
SMALL
GASTEIGER

@<TRIPOS>ATOM
      1 C          64.1343   82.0615   14.7703 C.3     1  UNL1        0.0024
      2 C          63.5660   82.9229   13.6817 C.3     1  UNL1        0.0247
      3 C          64.2522   83.6911   14.7723 C.3     1  UNL1        0.0023
      4 C          64.3211   85.1880   14.7061 C.3     1  UNL1        0.0004
      5 C          63.7039   85.9169   13.5494 C.3     1  UNL1        0.0036
      6 C          63.0178   85.1488   12.4589 C.3     1  UNL1        0.0031
      7 C          62.4007   85.8776   11.3022 C.3     1  UNL1        0.0335
      8 C          62.4696   87.3745   11.2360 C.3     1  UNL1        0.1289
      9 O          61.8525   88.1034   10.0793 O.3     1  UNL1       -0.3804
     10 C          63.1558   88.1427   12.3266 C.2     1  UNL1       -0.0157
     11 C          63.2247   89.6396   12.2604 C.2     1  UNL1        0.0312
     12 C          63.9108   90.4077   13.3509 C.2     1  UNL1        0.1726
     13 O          63.9798   91.9047   13.2848 O.2     1  UNL1       -0.2914
     14 C          64.5280   89.6789   14.5076 C.3     1  UNL1        0.0695
     15 C          64.4590   88.1820   14.5738 C.3     1  UNL1        0.0119
     16 C          63.7729   87.4139   13.4833 C.3     1  UNL1        0.0179
     17 C          64.3901   86.6850   14.6399 C.3     1  UNL1        0.0041
     18 C          62.9489   83.6518   12.5250 C.3     1  UNL1        0.0024
     19 C          62.3436   82.6333   11.6052 C.3     1  UNL1        0.0026
     20 C          62.5866   81.2750   12.1933 C.3     1  UNL1        0.0292
     21 C          63.3422   81.4541   13.4767 C.3     1  UNL1        0.1104
     22 O          63.7944   80.3567   14.3940 O.3     1  UNL1       -0.3845
     23 H          61.9852   89.0578   10.1906 H       1  UNL1        0.2108
     24 H          63.5228   79.4992   14.0308 H       1  UNL1        0.2103
@<TRIPOS>BOND
     1     2     1    1
     2     2     3    1
     3     3     4    1
     4     5     4    1
     5     5     6    1
     6     6     7    1
     7     7     8    1
     8     8     9    1
     9     8    10    1
    10    10    11    2
    11    11    12    1
    12    12    13    2
    13    12    14    1
    14    14    15    1
    15    15    16    1
    16    16    17    1
    17     6    18    1
    18    18    19    1
    19    19    20    1
    20    20    21    1
    21    21    22    1
    22    18     2    1
    23    21     2    1
    24    16     5    1
    25    16    10    1
    26     9    23    1
    27    22    24    1
@<TRIPOS>MOLECULE
*****
 24 27 0 0 0
SMALL
GASTEIGER

@<TRIPOS>ATOM
      1 C          64.7966   90.3401   14.8367 C.3     1  UNL1        0.0024
      2 C          64.1083   89.6402   13.7025 C.3     1  UNL1        0.0247
      3 C          64.6045   88.7186   14.7769 C.3     1  UNL1        0.0023
      4 C          64.3914   87.2390   14.6533 C.3     1  UNL1        0.0004
      5 C          63.6821   86.6810   13.4552 C.3     1  UNL1        0.0036
      6 C          63.1859   87.6025   12.3807 C.3     1  UNL1        0.0031
      7 C          62.4766   87.0444   11.1826 C.3     1  UNL1        0.0335
      8 C          62.2635   85.5648   11.0590 C.3     1  UNL1        0.1289
      9 O          61.5542   85.0068    9.8609 O.3     1  UNL1       -0.3804
     10 C          62.7598   84.6432   12.1335 C.2     1  UNL1       -0.0157
     11 C          62.5467   83.1636   12.0098 C.2     1  UNL1        0.0312
     12 C          63.0429   82.2421   13.0842 C.2     1  UNL1        0.1726
     13 O          62.8299   80.7624   12.9606 O.2     1  UNL1       -0.2914
     14 C          63.7522   82.8001   14.2823 C.3     1  UNL1        0.0695
     15 C          63.9653   84.2797   14.4060 C.3     1  UNL1        0.0119
     16 C          63.4691   85.2013   13.3316 C.3     1  UNL1        0.0179
     17 C          64.1784   85.7593   14.5297 C.3     1  UNL1        0.0041
     18 C          63.3990   89.0822   12.5044 C.3     1  UNL1        0.0024
     19 C          63.0243   90.2281   11.6121 C.3     1  UNL1        0.0026
     20 C          63.5021   91.4945   12.2587 C.3     1  UNL1        0.0292
     21 C          64.1720   91.1311   13.5506 C.3     1  UNL1        0.1104
     22 O          64.7960   92.0903   14.5204 O.3     1  UNL1       -0.3845
     23 H          61.5010   84.0412    9.9373 H       1  UNL1        0.2108
     24 H          64.7021   92.9958   14.1854 H       1  UNL1        0.2103
@<TRIPOS>BOND
     1     2     1    1
     2     2     3    1
     3     3     4    1
     4     5     4    1
     5     5     6    1
     6     6     7    1
     7     7     8    1
     8     8     9    1
     9     8    10    1
    10    10    11    2
    11    11    12    1
    12    12    13    2
    13    12    14    1
    14    14    15    1
    15    15    16    1
    16    16    17    1
    17     6    18    1
    18    18    19    1
    19    19    20    1
    20    20    21    1
    21    21    22    1
    22    18     2    1
    23    21     2    1
    24    16     5    1
    25    16    10    1
    26     9    23    1
    27    22    24    1
@<TRIPOS>MOLECULE
*****
 24 27 0 0 0
SMALL
GASTEIGER

@<TRIPOS>ATOM
      1 C          62.4562   88.0475   12.1886 C.3     1  UNL1        0.0024
      2 C          62.9982   89.3728   11.7417 C.3     1  UNL1        0.0247
      3 C          63.5048   88.9268   13.0813 C.3     1  UNL1        0.0023
      4 C          64.4673   89.7881   13.8440 C.3     1  UNL1        0.0004
      5 C          64.9232   91.0956   13.2672 C.3     1  UNL1        0.0036
      6 C          64.4166   91.5416   11.9276 C.3     1  UNL1        0.0031
      7 C          64.8725   92.8491   11.3508 C.3     1  UNL1        0.0335
      8 C          65.8350   93.7104   12.1135 C.3     1  UNL1        0.1289
      9 O          66.2909   95.0179   11.5366 O.3     1  UNL1       -0.3804
     10 C          66.3416   93.2644   13.4531 C.2     1  UNL1       -0.0157
     11 C          67.3040   94.1257   14.2157 C.2     1  UNL1        0.0312
     12 C          67.8106   93.6796   15.5552 C.2     1  UNL1        0.1726
     13 O          68.7731   94.5410   16.3180 O.2     1  UNL1       -0.2914
     14 C          67.3547   92.3722   16.1321 C.3     1  UNL1        0.0695
     15 C          66.3922   91.5108   15.3694 C.3     1  UNL1        0.0119
     16 C          65.8857   91.9569   14.0299 C.3     1  UNL1        0.0179
     17 C          65.4298   90.6495   14.6068 C.3     1  UNL1        0.0041
     18 C          63.4541   90.6803   11.1649 C.3     1  UNL1        0.0024
     19 C          62.7884   90.8563    9.8324 C.3     1  UNL1        0.0026
     20 C          61.9210   89.6576    9.5856 C.3     1  UNL1        0.0292
     21 C          62.0507   88.7408   10.7657 C.3     1  UNL1        0.1104
     22 O          61.3550   87.4233   10.9392 O.3     1  UNL1       -0.3845
     23 H          66.9063   95.4459   12.1523 H       1  UNL1        0.2108
     24 H          60.7992   87.2466   10.1641 H       1  UNL1        0.2103
@<TRIPOS>BOND
     1     2     1    1
     2     2     3    1
     3     3     4    1
     4     5     4    1
     5     5     6    1
     6     6     7    1
     7     7     8    1
     8     8     9    1
     9     8    10    1
    10    10    11    2
    11    11    12    1
    12    12    13    2
    13    12    14    1
    14    14    15    1
    15    15    16    1
    16    16    17    1
    17     6    18    1
    18    18    19    1
    19    19    20    1
    20    20    21    1
    21    21    22    1
    22    18     2    1
    23    21     2    1
    24    16     5    1
    25    16    10    1
    26     9    23    1
    27    22    24    1
@<TRIPOS>MOLECULE
*****
 24 27 0 0 0
SMALL
GASTEIGER

@<TRIPOS>ATOM
      1 C          62.5161   81.8700   12.1593 C.3     1  UNL1        0.0024
      2 C          63.0215   83.0537   12.9296 C.3     1  UNL1        0.0247
      3 C          62.4038   83.4041   11.6083 C.3     1  UNL1        0.0023
      4 C          62.3359   84.8365   11.1684 C.3     1  UNL1        0.0004
      5 C          62.8856   85.9186   12.0498 C.3     1  UNL1        0.0036
      6 C          63.5032   85.5683   13.3710 C.3     1  UNL1        0.0031
      7 C          64.0529   86.6505   14.2524 C.3     1  UNL1        0.0335
      8 C          63.9850   88.0829   13.8125 C.3     1  UNL1        0.1289
      9 O          64.5347   89.1650   14.6939 O.3     1  UNL1       -0.3804
     10 C          63.3674   88.4332   12.4912 C.2     1  UNL1       -0.0157
     11 C          63.2995   89.8656   12.0513 C.2     1  UNL1        0.0312
     12 C          62.6819   90.2159   10.7300 C.2     1  UNL1        0.1726
     13 O          62.6139   91.6484   10.2900 O.2     1  UNL1       -0.2914
     14 C          62.1322   89.1337    9.8486 C.3     1  UNL1        0.0695
     15 C          62.2001   87.7013   10.2885 C.3     1  UNL1        0.0119
     16 C          62.8177   87.3511   11.6098 C.3     1  UNL1        0.0179
     17 C          62.2680   86.2689   10.7284 C.3     1  UNL1        0.0041
     18 C          63.5711   84.1359   13.8110 C.3     1  UNL1        0.0024
     19 C          64.1174   83.4914   15.0504 C.3     1  UNL1        0.0026
     20 C          63.9053   82.0110   14.9351 C.3     1  UNL1        0.0292
     21 C          63.2280   81.7405   13.6243 C.3     1  UNL1        0.1104
     22 O          62.8275   80.3932   13.1003 O.3     1  UNL1       -0.3845
     23 H          64.4119   90.0258   14.2639 H       1  UNL1        0.2108
     24 H          63.0743   79.7099   13.7431 H       1  UNL1        0.2103
@<TRIPOS>BOND
     1     2     1    1
     2     2     3    1
     3     3     4    1
     4     5     4    1
     5     5     6    1
     6     6     7    1
     7     7     8    1
     8     8     9    1
     9     8    10    1
    10    10    11    2
    11    11    12    1
    12    12    13    2
    13    12    14    1
    14    14    15    1
    15    15    16    1
    16    16    17    1
    17     6    18    1
    18    18    19    1
    19    19    20    1
    20    20    21    1
    21    21    22    1
    22    18     2    1
    23    21     2    1
    24    16     5    1
    25    16    10    1
    26     9    23    1
    27    22    24    1
@<TRIPOS>MOLECULE
*****
 24 27 0 0 0
SMALL
GASTEIGER

@<TRIPOS>ATOM
      1 C          59.8048   89.3468    7.7787 C.3     1  UNL1        0.0024
      2 C          60.4643   88.4677    8.7996 C.3     1  UNL1        0.0247
      3 C          60.7716   89.9270    8.9612 C.3     1  UNL1        0.0023
      4 C          61.6689   90.3859   10.0721 C.3     1  UNL1        0.0004
      5 C          62.2591   89.3856   11.0214 C.3     1  UNL1        0.0036
      6 C          61.9519   87.9264   10.8598 C.3     1  UNL1        0.0031
      7 C          62.5420   86.9261   11.8091 C.3     1  UNL1        0.0335
      8 C          63.4393   87.3851   12.9200 C.3     1  UNL1        0.1289
      9 O          64.0294   86.3848   13.8693 O.3     1  UNL1       -0.3804
     10 C          63.7466   88.8444   13.0816 C.2     1  UNL1       -0.0157
     11 C          64.6439   89.3033   14.1925 C.2     1  UNL1        0.0312
     12 C          64.9511   90.7626   14.3541 C.2     1  UNL1        0.1726
     13 O          65.8485   91.2216   15.4650 O.2     1  UNL1       -0.2914
     14 C          64.3610   91.7629   13.4048 C.3     1  UNL1        0.0695
     15 C          63.4637   91.3039   12.2939 C.3     1  UNL1        0.0119
     16 C          63.1565   89.8447   12.1323 C.3     1  UNL1        0.0179
     17 C          62.5663   90.8450   11.1830 C.3     1  UNL1        0.0041
     18 C          61.0545   87.4674    9.7489 C.3     1  UNL1        0.0024
     19 C          60.5754   86.1050    9.3435 C.3     1  UNL1        0.0026
     20 C          59.6892   86.2633    8.1437 C.3     1  UNL1        0.0292
     21 C          59.6206   87.7235    7.8076 C.3     1  UNL1        0.1104
     22 O          58.8444   88.3326    6.6777 O.3     1  UNL1       -0.3845
     23 H          64.5807   86.8444   14.5218 H       1  UNL1        0.2108
     24 H          58.3850   87.6332    6.1870 H       1  UNL1        0.2103
@<TRIPOS>BOND
     1     2     1    1
     2     2     3    1
     3     3     4    1
     4     5     4    1
     5     5     6    1
     6     6     7    1
     7     7     8    1
     8     8     9    1
     9     8    10    1
    10    10    11    2
    11    11    12    1
    12    12    13    2
    13    12    14    1
    14    14    15    1
    15    15    16    1
    16    16    17    1
    17     6    18    1
    18    18    19    1
    19    19    20    1
    20    20    21    1
    21    21    22    1
    22    18     2    1
    23    21     2    1
    24    16     5    1
    25    16    10    1
    26     9    23    1
    27    22    24    1
@<TRIPOS>MOLECULE
*****
 24 27 0 0 0
SMALL
GASTEIGER

@<TRIPOS>ATOM
      1 C          60.2446   89.8058    8.4150 C.3     1  UNL1        0.0024
      2 C          60.5113   88.3850    8.8154 C.3     1  UNL1        0.0247
      3 C          61.1496   89.4024    9.7141 C.3     1  UNL1        0.0023
      4 C          61.9677   88.9565   10.8896 C.3     1  UNL1        0.0004
      5 C          62.1476   87.4932   11.1664 C.3     1  UNL1        0.0036
      6 C          61.5093   86.4759   10.2678 C.3     1  UNL1        0.0031
      7 C          61.6892   85.0127   10.5446 C.3     1  UNL1        0.0335
      8 C          62.5073   84.5668   11.7201 C.3     1  UNL1        0.1289
      9 O          62.6872   83.1036   11.9969 O.3     1  UNL1       -0.3804
     10 C          63.1456   85.5841   12.6188 C.2     1  UNL1       -0.0157
     11 C          63.9637   85.1382   13.7943 C.2     1  UNL1        0.0312
     12 C          64.6020   86.1555   14.6930 C.2     1  UNL1        0.1726
     13 O          65.4202   85.7097   15.8685 O.2     1  UNL1       -0.2914
     14 C          64.4221   87.6188   14.4161 C.3     1  UNL1        0.0695
     15 C          63.6040   88.0647   13.2407 C.3     1  UNL1        0.0119
     16 C          62.9658   87.0474   12.3420 C.3     1  UNL1        0.0179
     17 C          62.7859   88.5106   12.0652 C.3     1  UNL1        0.0041
     18 C          60.6912   86.9218    9.0922 C.3     1  UNL1        0.0024
     19 C          59.9471   86.1559    8.0389 C.3     1  UNL1        0.0026
     20 C          59.3073   87.1458    7.1110 C.3     1  UNL1        0.0292
     21 C          59.6561   88.5234    7.5910 C.3     1  UNL1        0.1104
     22 O          59.2251   89.8131    6.9576 O.3     1  UNL1       -0.3845
     23 H          63.2386   82.9893   12.7867 H       1  UNL1        0.2108
     24 H          58.6786   89.6241    6.1789 H       1  UNL1        0.2103
@<TRIPOS>BOND
     1     2     1    1
     2     2     3    1
     3     3     4    1
     4     5     4    1
     5     5     6    1
     6     6     7    1
     7     7     8    1
     8     8     9    1
     9     8    10    1
    10    10    11    2
    11    11    12    1
    12    12    13    2
    13    12    14    1
    14    14    15    1
    15    15    16    1
    16    16    17    1
    17     6    18    1
    18    18    19    1
    19    19    20    1
    20    20    21    1
    21    21    22    1
    22    18     2    1
    23    21     2    1
    24    16     5    1
    25    16    10    1
    26     9    23    1
    27    22    24    1
@<TRIPOS>MOLECULE
*****
 24 27 0 0 0
SMALL
GASTEIGER

@<TRIPOS>ATOM
      1 C          64.1127   83.5025   15.2884 C.3     1  UNL1        0.0024
      2 C          63.4910   83.7985   13.9558 C.3     1  UNL1        0.0247
      3 C          64.0181   85.0102   14.6659 C.3     1  UNL1        0.0023
      4 C          63.8955   86.3638   14.0314 C.3     1  UNL1        0.0004
      5 C          63.2459   86.5059   12.6869 C.3     1  UNL1        0.0036
      6 C          62.7188   85.2943   11.9768 C.3     1  UNL1        0.0031
      7 C          62.0691   85.4364   10.6323 C.3     1  UNL1        0.0335
      8 C          61.9465   86.7900    9.9979 C.3     1  UNL1        0.1289
      9 O          61.2968   86.9321    8.6533 O.3     1  UNL1       -0.3804
     10 C          62.4736   88.0017   10.7079 C.2     1  UNL1       -0.0157
     11 C          62.3510   89.3553   10.0735 C.2     1  UNL1        0.0312
     12 C          62.8781   90.5669   10.7835 C.2     1  UNL1        0.1726
     13 O          62.7556   91.9206   10.1490 O.2     1  UNL1       -0.2914
     14 C          63.5278   90.4248   12.1280 C.3     1  UNL1        0.0695
     15 C          63.6504   89.0712   12.7625 C.3     1  UNL1        0.0119
     16 C          63.1233   87.8596   12.0524 C.3     1  UNL1        0.0179
     17 C          63.7730   87.7176   13.3970 C.3     1  UNL1        0.0041
     18 C          62.8413   83.9406   12.6113 C.3     1  UNL1        0.0024
     19 C          62.4185   82.5760   12.1543 C.3     1  UNL1        0.0026
     20 C          62.8068   81.5905   13.2164 C.3     1  UNL1        0.0292
     21 C          63.4697   82.3461   14.3298 C.3     1  UNL1        0.1104
     22 O          64.0154   81.7533   15.5950 O.3     1  UNL1       -0.3845
     23 H          61.2992   87.8657    8.3901 H       1  UNL1        0.2108
     24 H          63.8752   80.7935   15.5891 H       1  UNL1        0.2103
@<TRIPOS>BOND
     1     2     1    1
     2     2     3    1
     3     3     4    1
     4     5     4    1
     5     5     6    1
     6     6     7    1
     7     7     8    1
     8     8     9    1
     9     8    10    1
    10    10    11    2
    11    11    12    1
    12    12    13    2
    13    12    14    1
    14    14    15    1
    15    15    16    1
    16    16    17    1
    17     6    18    1
    18    18    19    1
    19    19    20    1
    20    20    21    1
    21    21    22    1
    22    18     2    1
    23    21     2    1
    24    16     5    1
    25    16    10    1
    26     9    23    1
    27    22    24    1
