@<TRIPOS>MOLECULE
*****
 34 38 0 0 0
SMALL
GASTEIGER

@<TRIPOS>ATOM
      1 C          59.3554   88.9443    7.4313 C.ar    1  UNL1        0.0536
      2 C          60.1423   89.5704    8.5444 C.ar    1  UNL1        0.0046
      3 C          60.9354   88.7070    9.4800 C.ar    1  UNL1        0.0017
      4 C          60.9417   87.2175    9.3026 C.ar    1  UNL1        0.0191
      5 C          60.1549   86.5915    8.1896 C.ar    1  UNL1        0.0017
      6 C          59.3617   87.4549    7.2539 C.ar    1  UNL1        0.0046
      7 C          61.7349   86.3541   10.2383 C.ar    1  UNL1        0.0989
      8 C          62.3227   86.9434   11.4861 C.ar    1  UNL1        0.1006
      9 N          63.1159   86.0800   12.4217 N.ar    1  UNL1       -0.2861
     10 C          63.8107   86.3783   13.7172 C.ar    1  UNL1        0.0846
     11 C          64.4455   85.1101   14.2056 C.ar    1  UNL1        0.1180
     12 N          64.1430   84.0279   13.2120 N.ar    1  UNL1       -0.2233
     13 C          63.3212   84.6273   12.1095 C.ar    1  UNL1        0.1672
     14 C          62.7334   84.0380   10.8616 C.ar    1  UNL1        0.1361
     15 N          61.9403   84.9014    9.9260 N.ar    1  UNL1       -0.2392
     16 C          63.8618   87.7110   14.4037 C.ar    1  UNL1        0.0177
     17 C          63.4736   87.8261   15.8480 C.ar    1  UNL1        0.0022
     18 C          63.5247   89.1588   16.5345 C.ar    1  UNL1        0.0103
     19 C          63.9639   90.3765   15.7767 C.ar    1  UNL1        0.0684
     20 C          64.3521   90.2615   14.3324 C.ar    1  UNL1        0.0103
     21 C          64.3010   88.9288   13.6458 C.ar    1  UNL1        0.0022
     22 C          64.0150   91.7092   16.4632 C.1     1  UNL1        0.1004
     23 N          64.0659   93.0419   17.1496 N.1     1  UNL1       -0.1908
     24 C          60.6747   92.3317    3.4270 C.3     1  UNL1        0.0610
     25 C          61.4678   91.4683    4.3626 C.3     1  UNL1        0.0375
     26 C          60.7637   90.6269    5.3856 C.3     1  UNL1        0.0951
     27 N          59.2664   90.6490    5.4728 N.am    1  UNL1       -0.2760
     28 C          58.5622   89.8077    6.4957 C.2     1  UNL1        0.2490
     29 O          57.0649   89.8298    6.5830 O.2     1  UNL1       -0.2699
     30 C          58.4732   91.5125    4.5372 C.3     1  UNL1        0.0951
     31 C          59.1774   92.3538    3.5143 C.3     1  UNL1        0.0375
     32 C          60.6680   94.3298    1.7664 C.3     1  UNL1        0.0896
     33 N          61.3788   93.1730    2.4041 N.3     1  UNL1       -0.2715
     34 C          62.7938   92.8576    2.0189 C.3     1  UNL1        0.0896
@<TRIPOS>BOND
     1    32    33    1
     2    33    34    1
     3    33    24    1
     4    24    25    1
     5    25    26    1
     6    26    27    1
     7    27    28   am
     8    28    29    2
     9    28     1    1
    10     1     2   ar
    11     2     3   ar
    12     3     4   ar
    13     4     7    1
    14     7     8   ar
    15     8     9   ar
    16     9    10   ar
    17    10    16    1
    18    16    17   ar
    19    17    18   ar
    20    18    19   ar
    21    19    22    1
    22    22    23    3
    23    19    20   ar
    24    20    21   ar
    25    10    11   ar
    26    11    12   ar
    27    12    13   ar
    28    13    14   ar
    29    14    15   ar
    30     4     5   ar
    31     5     6   ar
    32    27    30    1
    33    30    31    1
    34    31    24    1
    35     6     1   ar
    36    15     7   ar
    37    13     9   ar
    38    21    16   ar
@<TRIPOS>MOLECULE
*****
 34 38 0 0 0
SMALL
GASTEIGER

@<TRIPOS>ATOM
      1 C          65.4673   91.9442   14.0280 C.ar    1  UNL1        0.0536
      2 C          66.3524   90.9670   14.7433 C.ar    1  UNL1        0.0046
      3 C          65.8875   89.5586   14.9674 C.ar    1  UNL1        0.0017
      4 C          64.5374   89.1274   14.4761 C.ar    1  UNL1        0.0191
      5 C          63.6523   90.1045   13.7608 C.ar    1  UNL1        0.0017
      6 C          64.1172   91.5130   13.5367 C.ar    1  UNL1        0.0046
      7 C          64.0724   87.7189   14.7002 C.ar    1  UNL1        0.0989
      8 C          63.7246   86.8487   13.5291 C.ar    1  UNL1        0.1006
      9 N          63.2597   85.4403   13.7532 N.ar    1  UNL1       -0.2861
     10 C          62.8496   84.3553   12.8021 C.ar    1  UNL1        0.0846
     11 C          62.4790   83.1467   13.6095 C.ar    1  UNL1        0.1180
     12 N          62.6601   83.4847   15.0596 N.ar    1  UNL1       -0.2233
     13 C          63.1426   84.9022   15.1485 C.ar    1  UNL1        0.1672
     14 C          63.4904   85.7725   16.3196 C.ar    1  UNL1        0.1361
     15 N          63.9554   87.1808   16.0955 N.ar    1  UNL1       -0.2392
     16 C          62.8159   84.4606   11.3062 C.ar    1  UNL1        0.0177
     17 C          63.7061   83.5873   10.4726 C.ar    1  UNL1        0.0022
     18 C          63.6724   83.6926    8.9767 C.ar    1  UNL1        0.0103
     19 C          62.7485   84.6711    8.3143 C.ar    1  UNL1        0.0684
     20 C          61.8583   85.5445    9.1478 C.ar    1  UNL1        0.0103
     21 C          61.8920   85.4392   10.6437 C.ar    1  UNL1        0.0022
     22 C          62.7149   84.7764    6.8184 C.1     1  UNL1        0.1004
     23 N          62.6814   84.8816    5.3225 N.1     1  UNL1       -0.1908
     24 C          66.4224   94.9205    9.6145 C.3     1  UNL1        0.0610
     25 C          65.9575   93.5122    9.8386 C.3     1  UNL1        0.0375
     26 C          65.7941   92.9895   11.2351 C.3     1  UNL1        0.0951
     27 N          66.0957   93.8752   12.4075 N.am    1  UNL1       -0.2760
     28 C          65.9323   93.3526   13.8039 C.2     1  UNL1        0.2490
     29 O          66.2339   94.2384   14.9763 O.2     1  UNL1       -0.2699
     30 C          66.5606   95.2837   12.1833 C.3     1  UNL1        0.0951
     31 C          66.7240   95.8063   10.7869 C.3     1  UNL1        0.0375
     32 C          65.8460   96.6747    7.7868 C.3     1  UNL1        0.0896
     33 N          66.5858   95.4432    8.2181 N.3     1  UNL1       -0.2715
     34 C          67.4890   94.7342    7.2528 C.3     1  UNL1        0.0896
@<TRIPOS>BOND
     1    32    33    1
     2    33    34    1
     3    33    24    1
     4    24    25    1
     5    25    26    1
     6    26    27    1
     7    27    28   am
     8    28    29    2
     9    28     1    1
    10     1     2   ar
    11     2     3   ar
    12     3     4   ar
    13     4     7    1
    14     7     8   ar
    15     8     9   ar
    16     9    10   ar
    17    10    16    1
    18    16    17   ar
    19    17    18   ar
    20    18    19   ar
    21    19    22    1
    22    22    23    3
    23    19    20   ar
    24    20    21   ar
    25    10    11   ar
    26    11    12   ar
    27    12    13   ar
    28    13    14   ar
    29    14    15   ar
    30     4     5   ar
    31     5     6   ar
    32    27    30    1
    33    30    31    1
    34    31    24    1
    35     6     1   ar
    36    15     7   ar
    37    13     9   ar
    38    21    16   ar
@<TRIPOS>MOLECULE
*****
 34 38 0 0 0
SMALL
GASTEIGER

@<TRIPOS>ATOM
      1 C          59.3446   90.0730    6.0214 C.ar    1  UNL1        0.0536
      2 C          58.1522   90.8713    5.5843 C.ar    1  UNL1        0.0046
      3 C          58.3050   91.9369    4.5397 C.ar    1  UNL1        0.0017
      4 C          59.6502   92.2043    3.9323 C.ar    1  UNL1        0.0191
      5 C          60.8426   91.4060    4.3693 C.ar    1  UNL1        0.0017
      6 C          60.6898   90.3404    5.4139 C.ar    1  UNL1        0.0046
      7 C          59.8030   93.2700    2.8877 C.ar    1  UNL1        0.0989
      8 C          59.1507   93.1051    1.5471 C.ar    1  UNL1        0.1006
      9 N          59.3035   94.1708    0.5026 N.ar    1  UNL1       -0.2861
     10 C          58.7804   94.2852   -0.8986 C.ar    1  UNL1        0.0846
     11 C          59.2622   95.5863   -1.4685 C.ar    1  UNL1        0.1180
     12 N          60.0831   96.2761   -0.4195 N.ar    1  UNL1       -0.2233
     13 C          60.1086   95.4012    0.7987 C.ar    1  UNL1        0.1672
     14 C          60.7609   95.5661    2.1393 C.ar    1  UNL1        0.1361
     15 N          60.6081   94.5005    3.1838 N.ar    1  UNL1       -0.2392
     16 C          57.9256   93.2756   -1.6057 C.ar    1  UNL1        0.0177
     17 C          58.4520   92.5634   -2.8163 C.ar    1  UNL1        0.0022
     18 C          57.5971   91.5538   -3.5234 C.ar    1  UNL1        0.0103
     19 C          56.2158   91.2565   -3.0200 C.ar    1  UNL1        0.0684
     20 C          55.6893   91.9687   -1.8094 C.ar    1  UNL1        0.0103
     21 C          56.5442   92.9782   -1.1022 C.ar    1  UNL1        0.0022
     22 C          55.3610   90.2469   -3.7271 C.1     1  UNL1        0.1004
     23 N          54.5061   89.2375   -4.4342 N.1     1  UNL1       -0.1908
     24 C          61.7391   89.1098   10.7741 C.3     1  UNL1        0.0610
     25 C          61.8919   90.1754    9.7295 C.3     1  UNL1        0.0375
     26 C          61.0428   90.1413    8.4934 C.3     1  UNL1        0.0951
     27 N          60.0409   89.0416    8.3019 N.am    1  UNL1       -0.2760
     28 C          59.1918   89.0074    7.0659 C.2     1  UNL1        0.2490
     29 O          58.1898   87.9077    6.8744 O.2     1  UNL1       -0.2699
     30 C          59.8881   87.9759    9.3465 C.3     1  UNL1        0.0951
     31 C          60.7372   88.0101   10.5826 C.3     1  UNL1        0.0375
     32 C          62.8075   90.4394   12.7339 C.3     1  UNL1        0.0896
     33 N          62.5882   89.1440   12.0101 N.3     1  UNL1       -0.2715
     34 C          63.2182   87.8827   12.5224 C.3     1  UNL1        0.0896
@<TRIPOS>BOND
     1    32    33    1
     2    33    34    1
     3    33    24    1
     4    24    25    1
     5    25    26    1
     6    26    27    1
     7    27    28   am
     8    28    29    2
     9    28     1    1
    10     1     2   ar
    11     2     3   ar
    12     3     4   ar
    13     4     7    1
    14     7     8   ar
    15     8     9   ar
    16     9    10   ar
    17    10    16    1
    18    16    17   ar
    19    17    18   ar
    20    18    19   ar
    21    19    22    1
    22    22    23    3
    23    19    20   ar
    24    20    21   ar
    25    10    11   ar
    26    11    12   ar
    27    12    13   ar
    28    13    14   ar
    29    14    15   ar
    30     4     5   ar
    31     5     6   ar
    32    27    30    1
    33    30    31    1
    34    31    24    1
    35     6     1   ar
    36    15     7   ar
    37    13     9   ar
    38    21    16   ar
@<TRIPOS>MOLECULE
*****
 34 38 0 0 0
SMALL
GASTEIGER

@<TRIPOS>ATOM
      1 C          59.6655   89.1610    8.0427 C.ar    1  UNL1        0.0536
      2 C          60.0245   90.1476    9.1141 C.ar    1  UNL1        0.0046
      3 C          60.9016   89.7283   10.2564 C.ar    1  UNL1        0.0017
      4 C          61.4197   88.3224   10.3274 C.ar    1  UNL1        0.0191
      5 C          61.0607   87.3358    9.2561 C.ar    1  UNL1        0.0017
      6 C          60.1836   87.7551    8.1137 C.ar    1  UNL1        0.0046
      7 C          62.2968   87.9032   11.4697 C.ar    1  UNL1        0.0989
      8 C          62.6316   86.4542   11.6657 C.ar    1  UNL1        0.1006
      9 N          63.5087   86.0350   12.8080 N.ar    1  UNL1       -0.2861
     10 C          64.0066   84.6910   13.2505 C.ar    1  UNL1        0.0846
     11 C          64.8566   84.8901   14.4703 C.ar    1  UNL1        0.1180
     12 N          64.8840   86.3571   14.7817 N.ar    1  UNL1       -0.2233
     13 C          64.0510   87.0648   13.7544 C.ar    1  UNL1        0.1672
     14 C          63.7162   88.5137   13.5584 C.ar    1  UNL1        0.1361
     15 N          62.8391   88.9329   12.4161 N.ar    1  UNL1       -0.2392
     16 C          63.7071   83.3784   12.5892 C.ar    1  UNL1        0.0177
     17 C          63.0330   82.2850   13.3636 C.ar    1  UNL1        0.0022
     18 C          62.7334   80.9723   12.7023 C.ar    1  UNL1        0.0103
     19 C          63.1081   80.7531   11.2665 C.ar    1  UNL1        0.0684
     20 C          63.7823   81.8466   10.4920 C.ar    1  UNL1        0.0103
     21 C          64.0818   83.1592   11.1533 C.ar    1  UNL1        0.0022
     22 C          62.8086   79.4405   10.6052 C.1     1  UNL1        0.1004
     23 N          62.5091   78.1279    9.9440 N.1     1  UNL1       -0.1908
     24 C          60.4726   92.1092    3.5811 C.3     1  UNL1        0.0610
     25 C          61.3497   91.6899    4.7234 C.3     1  UNL1        0.0375
     26 C          60.7883   90.8469    5.8299 C.3     1  UNL1        0.0951
     27 N          59.3498   90.4233    5.7940 N.am    1  UNL1       -0.2760
     28 C          58.7884   89.5803    6.9004 C.2     1  UNL1        0.2490
     29 O          57.3499   89.1566    6.8646 O.2     1  UNL1       -0.2699
     30 C          58.4727   90.8426    4.6516 C.3     1  UNL1        0.0951
     31 C          59.0341   91.6856    3.5452 C.3     1  UNL1        0.0375
     32 C          60.1504   93.9235    1.7496 C.3     1  UNL1        0.0896
     33 N          61.0340   92.9522    2.4747 N.3     1  UNL1       -0.2715
     34 C          62.4791   92.8238    2.0933 C.3     1  UNL1        0.0896
@<TRIPOS>BOND
     1    32    33    1
     2    33    34    1
     3    33    24    1
     4    24    25    1
     5    25    26    1
     6    26    27    1
     7    27    28   am
     8    28    29    2
     9    28     1    1
    10     1     2   ar
    11     2     3   ar
    12     3     4   ar
    13     4     7    1
    14     7     8   ar
    15     8     9   ar
    16     9    10   ar
    17    10    16    1
    18    16    17   ar
    19    17    18   ar
    20    18    19   ar
    21    19    22    1
    22    22    23    3
    23    19    20   ar
    24    20    21   ar
    25    10    11   ar
    26    11    12   ar
    27    12    13   ar
    28    13    14   ar
    29    14    15   ar
    30     4     5   ar
    31     5     6   ar
    32    27    30    1
    33    30    31    1
    34    31    24    1
    35     6     1   ar
    36    15     7   ar
    37    13     9   ar
    38    21    16   ar
@<TRIPOS>MOLECULE
*****
 34 38 0 0 0
SMALL
GASTEIGER

@<TRIPOS>ATOM
      1 C          59.2210   89.6678    6.7328 C.ar    1  UNL1        0.0536
      2 C          60.1846   90.1853    7.7593 C.ar    1  UNL1        0.0046
      3 C          60.8215   89.2397    8.7341 C.ar    1  UNL1        0.0017
      4 C          60.4948   87.7766    8.6824 C.ar    1  UNL1        0.0191
      5 C          59.5312   87.2591    7.6559 C.ar    1  UNL1        0.0017
      6 C          58.8943   88.2047    6.6811 C.ar    1  UNL1        0.0046
      7 C          61.1317   86.8310    9.6573 C.ar    1  UNL1        0.0989
      8 C          61.9391   87.3659   10.8026 C.ar    1  UNL1        0.1006
      9 N          62.5759   86.4203   11.7774 N.ar    1  UNL1       -0.2861
     10 C          63.4217   86.6523   12.9944 C.ar    1  UNL1        0.0846
     11 C          63.7739   85.3152   13.5759 C.ar    1  UNL1        0.1180
     12 N          63.1458   84.2568   12.7183 N.ar    1  UNL1       -0.2233
     13 C          62.4054   84.9398   11.6068 C.ar    1  UNL1        0.1672
     14 C          61.5980   84.4049   10.4614 C.ar    1  UNL1        0.1361
     15 N          60.9612   85.3505    9.4866 N.ar    1  UNL1       -0.2392
     16 C          63.8415   87.9870   13.5349 C.ar    1  UNL1        0.0177
     17 C          63.4990   89.2408   12.7863 C.ar    1  UNL1        0.0022
     18 C          63.9188   90.5756   13.3268 C.ar    1  UNL1        0.0103
     19 C          64.6813   90.6565   14.6160 C.ar    1  UNL1        0.0684
     20 C          65.0239   89.4027   15.3647 C.ar    1  UNL1        0.0103
     21 C          64.6041   88.0679   14.8242 C.ar    1  UNL1        0.0022
     22 C          65.1011   91.9913   15.1565 C.1     1  UNL1        0.1004
     23 N          65.5208   93.3260   15.6970 N.1     1  UNL1       -0.1908
     24 C          61.0994   92.6602    2.6381 C.3     1  UNL1        0.0610
     25 C          61.7362   91.7146    3.6128 C.3     1  UNL1        0.0375
     26 C          60.8978   91.0323    4.6529 C.3     1  UNL1        0.0951
     27 N          59.4226   91.2956    4.7180 N.am    1  UNL1       -0.2760
     28 C          58.5841   90.6134    5.7580 C.2     1  UNL1        0.2490
     29 O          57.1089   90.8767    5.8232 O.2     1  UNL1       -0.2699
     30 C          58.7857   92.2413    3.7432 C.3     1  UNL1        0.0951
     31 C          59.6241   92.9235    2.7032 C.3     1  UNL1        0.0375
     32 C          61.5851   93.2114    0.1460 C.3     1  UNL1        0.0896
     33 N          61.9378   93.3424    1.5981 N.3     1  UNL1       -0.2715
     34 C          63.1289   94.1557    2.0102 C.3     1  UNL1        0.0896
@<TRIPOS>BOND
     1    32    33    1
     2    33    34    1
     3    33    24    1
     4    24    25    1
     5    25    26    1
     6    26    27    1
     7    27    28   am
     8    28    29    2
     9    28     1    1
    10     1     2   ar
    11     2     3   ar
    12     3     4   ar
    13     4     7    1
    14     7     8   ar
    15     8     9   ar
    16     9    10   ar
    17    10    16    1
    18    16    17   ar
    19    17    18   ar
    20    18    19   ar
    21    19    22    1
    22    22    23    3
    23    19    20   ar
    24    20    21   ar
    25    10    11   ar
    26    11    12   ar
    27    12    13   ar
    28    13    14   ar
    29    14    15   ar
    30     4     5   ar
    31     5     6   ar
    32    27    30    1
    33    30    31    1
    34    31    24    1
    35     6     1   ar
    36    15     7   ar
    37    13     9   ar
    38    21    16   ar
