@<TRIPOS>MOLECULE
*****
 28 31 0 0 0
SMALL
GASTEIGER

@<TRIPOS>ATOM
      1 C          64.8806   90.4733   14.3982 C.ar    1  UNL1        0.0516
      2 C          64.0382   90.8410   13.2127 C.ar    1  UNL1        0.0147
      3 C          64.5014   91.9075   12.2653 C.ar    1  UNL1        0.0010
      4 C          65.8071   92.6066   12.5032 C.ar    1  UNL1       -0.0014
      5 C          66.6496   92.2391   13.6886 C.ar    1  UNL1        0.0010
      6 C          66.1863   91.1724   14.6361 C.ar    1  UNL1        0.0147
      7 C          66.2703   93.6732   11.5557 C.2     1  UNL1        0.0158
      8 C          65.8410   95.0959   11.7599 C.2     1  UNL1        0.0487
      9 C          66.3041   96.1625   10.8125 C.2     1  UNL1        0.2355
     10 N          67.1967   95.8065    9.6606 N.2     1  UNL1       -0.0325
     11 C          67.6260   94.3839    9.4564 C.2     1  UNL1        0.3799
     12 N          68.4950   93.7369    8.4189 N.2     1  UNL1       -0.0106
     13 C          68.5689   92.2703    8.7253 C.2     1  UNL1        0.3351
     14 N          67.7456   92.0110    9.9521 N.2     1  UNL1       -0.2103
     15 C          67.1629   93.3172   10.4039 C.3     1  UNL1        0.2404
     16 O          64.3614   87.6953   13.3917 O.2     1  UNL1       -0.2522
     17 C          64.1578   88.0177   14.8424 C.2     1  UNL1        0.3082
     18 N          64.4175   89.4068   15.3456 N.am    1  UNL1       -0.2681
     19 N          63.6946   86.9511   15.7899 N.am    1  UNL1       -0.2680
     20 H          64.2838   89.6184   16.2978 H       1  UNL1        0.1564
     21 H          63.5610   87.1628   16.7420 H       1  UNL1        0.1564
     22 C          63.4350   85.5621   15.2867 C.ar    1  UNL1        0.0538
     23 C          62.3177   84.7495   15.8708 C.ar    1  UNL1        0.0149
     24 C          62.0580   83.3604   15.3677 C.ar    1  UNL1        0.0036
     25 C          62.9157   82.7840   14.2804 C.ar    1  UNL1        0.0297
     26 C          64.0331   83.5967   13.6962 C.ar    1  UNL1        0.1414
     27 F          64.8907   83.0203   12.6090 F       1  UNL1       -0.2041
     28 C          64.2927   84.9858   14.1994 C.ar    1  UNL1        0.0443
@<TRIPOS>BOND
     1    16    17    2
     2    17    18   am
     3    18     1    1
     4     1     2   ar
     5     2     3   ar
     6     3     4   ar
     7     4     7    1
     8     7     8    2
     9     8     9    1
    10     9    10    2
    11    10    11    1
    12    11    12    2
    13    12    13    1
    14    13    14    2
    15    14    15    1
    16     4     5   ar
    17     5     6   ar
    18    17    19   am
    19    19    22    1
    20    22    23   ar
    21    23    24   ar
    22    24    25   ar
    23    25    26   ar
    24    26    27    1
    25    26    28   ar
    26     6     1   ar
    27    28    22   ar
    28    15     7    1
    29    15    11    1
    30    18    20    1
    31    19    21    1
@<TRIPOS>MOLECULE
*****
 28 31 0 0 0
SMALL
GASTEIGER

@<TRIPOS>ATOM
      1 C          64.1788   90.2706   13.2548 C.ar    1  UNL1        0.0516
      2 C          63.3875   89.7964   12.0719 C.ar    1  UNL1        0.0147
      3 C          63.0373   88.3442   11.9372 C.ar    1  UNL1        0.0010
      4 C          63.4784   87.3659   12.9853 C.ar    1  UNL1       -0.0014
      5 C          64.2696   87.8399   14.1682 C.ar    1  UNL1        0.0010
      6 C          64.6198   89.2923   14.3029 C.ar    1  UNL1        0.0147
      7 C          63.1281   85.9136   12.8505 C.2     1  UNL1        0.0158
      8 C          62.8471   85.3324   11.4965 C.2     1  UNL1        0.0487
      9 C          62.4969   83.8802   11.3617 C.2     1  UNL1        0.2355
     10 N          62.4276   83.0090   12.5809 N.2     1  UNL1       -0.0325
     11 C          62.7087   83.5902   13.9348 C.2     1  UNL1        0.3799
     12 N          62.7167   82.9822   15.3061 N.2     1  UNL1       -0.0106
     13 C          63.0720   84.0587   16.2883 C.2     1  UNL1        0.3351
     14 N          63.2834   85.3321   15.5242 N.2     1  UNL1       -0.2103
     15 C          63.0589   85.0425   14.0697 C.3     1  UNL1        0.2404
     16 O          65.4644   91.7222   10.9657 O.2     1  UNL1       -0.2522
     17 C          65.1718   92.4487   12.2450 C.2     1  UNL1        0.3082
     18 N          64.5290   91.7228   13.3896 N.am    1  UNL1       -0.2681
     19 N          65.5220   93.9009   12.3798 N.am    1  UNL1       -0.2680
     20 H          64.3370   92.1996   14.2293 H       1  UNL1        0.1564
     21 H          65.3300   94.3777   13.2195 H       1  UNL1        0.1564
     22 C          66.1648   94.6268   11.2352 C.ar    1  UNL1        0.0538
     23 C          66.1575   96.1264   11.1993 C.ar    1  UNL1        0.0149
     24 C          66.8002   96.8523   10.0548 C.ar    1  UNL1        0.0036
     25 C          67.4504   96.0787    8.9463 C.ar    1  UNL1        0.0297
     26 C          67.4577   94.5791    8.9822 C.ar    1  UNL1        0.1414
     27 F          68.1078   93.8055    7.8737 F       1  UNL1       -0.2041
     28 C          66.8149   93.8531   10.1268 C.ar    1  UNL1        0.0443
@<TRIPOS>BOND
     1    16    17    2
     2    17    18   am
     3    18     1    1
     4     1     2   ar
     5     2     3   ar
     6     3     4   ar
     7     4     7    1
     8     7     8    2
     9     8     9    1
    10     9    10    2
    11    10    11    1
    12    11    12    2
    13    12    13    1
    14    13    14    2
    15    14    15    1
    16     4     5   ar
    17     5     6   ar
    18    17    19   am
    19    19    22    1
    20    22    23   ar
    21    23    24   ar
    22    24    25   ar
    23    25    26   ar
    24    26    27    1
    25    26    28   ar
    26     6     1   ar
    27    28    22   ar
    28    15     7    1
    29    15    11    1
    30    18    20    1
    31    19    21    1
@<TRIPOS>MOLECULE
*****
 28 31 0 0 0
SMALL
GASTEIGER

@<TRIPOS>ATOM
      1 C          64.5141   90.7603   13.6227 C.ar    1  UNL1        0.0516
      2 C          63.7207   90.0470   12.5682 C.ar    1  UNL1        0.0147
      3 C          63.4727   88.5724   12.6854 C.ar    1  UNL1        0.0010
      4 C          64.0180   87.8109   13.8572 C.ar    1  UNL1       -0.0014
      5 C          64.8113   88.5241   14.9117 C.ar    1  UNL1        0.0010
      6 C          65.0593   89.9989   14.7944 C.ar    1  UNL1        0.0147
      7 C          63.7699   86.3362   13.9744 C.2     1  UNL1        0.0158
      8 C          64.0967   85.6198   15.2512 C.2     1  UNL1        0.0487
      9 C          63.8487   84.1452   15.3684 C.2     1  UNL1        0.2355
     10 N          63.2738   83.3868   14.2089 N.2     1  UNL1       -0.0325
     11 C          62.9470   84.1031   12.9322 C.2     1  UNL1        0.3799
     12 N          62.3753   83.6243   11.6307 N.2     1  UNL1       -0.0106
     13 C          62.2700   84.8031   10.7091 C.2     1  UNL1        0.3351
     14 N          62.7766   86.0105   11.4410 N.2     1  UNL1       -0.2103
     15 C          63.1951   85.5778   12.8149 C.3     1  UNL1        0.2404
     16 O          65.7950   91.8739   11.1490 O.2     1  UNL1       -0.2522
     17 C          65.4026   92.7918   12.2686 C.2     1  UNL1        0.3082
     18 N          64.7621   92.2349   13.5055 N.am    1  UNL1       -0.2681
     19 N          65.6506   94.2664   12.1514 N.am    1  UNL1       -0.2680
     20 H          64.5046   92.8374   14.2403 H       1  UNL1        0.1564
     21 H          65.3931   94.8688   12.8862 H       1  UNL1        0.1564
     22 C          66.2911   94.8233   10.9145 C.ar    1  UNL1        0.0538
     23 C          66.2496   96.2988   10.6478 C.ar    1  UNL1        0.0149
     24 C          66.8900   96.8557    9.4110 C.ar    1  UNL1        0.0036
     25 C          67.5720   95.9371    8.4409 C.ar    1  UNL1        0.0297
     26 C          67.6135   94.4615    8.7076 C.ar    1  UNL1        0.1414
     27 F          68.2953   93.5430    7.7375 F       1  UNL1       -0.2041
     28 C          66.9730   93.9046    9.9444 C.ar    1  UNL1        0.0443
@<TRIPOS>BOND
     1    16    17    2
     2    17    18   am
     3    18     1    1
     4     1     2   ar
     5     2     3   ar
     6     3     4   ar
     7     4     7    1
     8     7     8    2
     9     8     9    1
    10     9    10    2
    11    10    11    1
    12    11    12    2
    13    12    13    1
    14    13    14    2
    15    14    15    1
    16     4     5   ar
    17     5     6   ar
    18    17    19   am
    19    19    22    1
    20    22    23   ar
    21    23    24   ar
    22    24    25   ar
    23    25    26   ar
    24    26    27    1
    25    26    28   ar
    26     6     1   ar
    27    28    22   ar
    28    15     7    1
    29    15    11    1
    30    18    20    1
    31    19    21    1
@<TRIPOS>MOLECULE
*****
 28 31 0 0 0
SMALL
GASTEIGER

@<TRIPOS>ATOM
      1 C          45.5488   73.6476   19.3800 C.ar    1  UNL1        0.0516
      2 C          46.8351   74.4181   19.4243 C.ar    1  UNL1        0.0147
      3 C          46.8250   75.8744   19.7833 C.ar    1  UNL1        0.0010
      4 C          45.5286   76.5604   20.0980 C.ar    1  UNL1       -0.0014
      5 C          44.2424   75.7900   20.0537 C.ar    1  UNL1        0.0010
      6 C          44.2525   74.3336   19.6947 C.ar    1  UNL1        0.0147
      7 C          45.5186   78.0168   20.4570 C.2     1  UNL1        0.0158
      8 C          45.2598   78.4384   21.8730 C.2     1  UNL1        0.0487
      9 C          45.2497   79.8947   22.2320 C.2     1  UNL1        0.2355
     10 N          45.4985   80.9295   21.1750 N.2     1  UNL1       -0.0325
     11 C          45.7573   80.5079   19.7589 C.2     1  UNL1        0.3799
     12 N          46.0329   81.2947   18.5119 N.2     1  UNL1       -0.0106
     13 C          46.2133   80.3245   17.3822 C.2     1  UNL1        0.3351
     14 N          46.0492   78.9382   17.9310 N.2     1  UNL1       -0.2103
     15 C          45.7673   79.0515   19.3999 C.3     1  UNL1        0.2404
     16 O          45.5875   72.8132   16.4987 O.2     1  UNL1       -0.2522
     17 C          45.5783   71.7740   17.5803 C.2     1  UNL1        0.3082
     18 N          45.5589   72.1913   19.0210 N.am    1  UNL1       -0.2681
     19 N          45.5884   70.3178   17.2214 N.am    1  UNL1       -0.2680
     20 H          45.5529   71.5093   19.7310 H       1  UNL1        0.1564
     21 H          45.5823   69.6357   17.9313 H       1  UNL1        0.1564
     22 C          45.6077   69.9005   15.7806 C.ar    1  UNL1        0.0538
     23 C          46.6242   68.9070   15.3012 C.ar    1  UNL1        0.0149
     24 C          46.6436   68.4897   13.8606 C.ar    1  UNL1        0.0036
     25 C          45.6465   69.0659   12.8993 C.ar    1  UNL1        0.0297
     26 C          44.6300   70.0594   13.3788 C.ar    1  UNL1        0.1414
     27 F          43.6330   70.6355   12.4177 F       1  UNL1       -0.2041
     28 C          44.6107   70.4767   14.8195 C.ar    1  UNL1        0.0443
@<TRIPOS>BOND
     1    16    17    2
     2    17    18   am
     3    18     1    1
     4     1     2   ar
     5     2     3   ar
     6     3     4   ar
     7     4     7    1
     8     7     8    2
     9     8     9    1
    10     9    10    2
    11    10    11    1
    12    11    12    2
    13    12    13    1
    14    13    14    2
    15    14    15    1
    16     4     5   ar
    17     5     6   ar
    18    17    19   am
    19    19    22    1
    20    22    23   ar
    21    23    24   ar
    22    24    25   ar
    23    25    26   ar
    24    26    27    1
    25    26    28   ar
    26     6     1   ar
    27    28    22   ar
    28    15     7    1
    29    15    11    1
    30    18    20    1
    31    19    21    1
@<TRIPOS>MOLECULE
*****
 28 31 0 0 0
SMALL
GASTEIGER

@<TRIPOS>ATOM
      1 C          62.7612   88.5002   11.5983 C.ar    1  UNL1        0.0516
      2 C          63.4886   88.8135   12.8722 C.ar    1  UNL1        0.0147
      3 C          64.2425   90.1031   13.0076 C.ar    1  UNL1        0.0010
      4 C          64.2691   91.0795   11.8692 C.ar    1  UNL1       -0.0014
      5 C          63.5417   90.7662   10.5953 C.ar    1  UNL1        0.0010
      6 C          62.7878   89.4765   10.4599 C.ar    1  UNL1        0.0147
      7 C          65.0231   92.3692   12.0046 C.2     1  UNL1        0.0158
      8 C          65.0628   93.3385   10.8606 C.2     1  UNL1        0.0487
      9 C          65.8167   94.6281   10.9961 C.2     1  UNL1        0.2355
     10 N          66.5310   94.9485   12.2756 N.2     1  UNL1       -0.0325
     11 C          66.4913   93.9792   13.4197 C.2     1  UNL1        0.3799
     12 N          67.0947   94.0214   14.7923 N.2     1  UNL1       -0.0106
     13 C          66.7136   92.7578   15.5051 C.2     1  UNL1        0.3351
     14 N          65.8747   91.9347   14.5731 N.2     1  UNL1       -0.2103
     15 C          65.7373   92.6895   13.2842 C.3     1  UNL1        0.2404
     16 O          63.8625   85.9848   12.8065 O.2     1  UNL1       -0.2522
     17 C          62.5579   85.9528   12.0669 C.2     1  UNL1        0.3082
     18 N          62.0073   87.2106   11.4628 N.am    1  UNL1       -0.2681
     19 N          61.8040   84.6632   11.9315 N.am    1  UNL1       -0.2680
     20 H          61.1510   87.1896   10.9774 H       1  UNL1        0.1564
     21 H          60.9478   84.6423   11.4461 H       1  UNL1        0.1564
     22 C          62.3547   83.4054   12.5356 C.ar    1  UNL1        0.0538
     23 C          62.9621   83.4356   13.9068 C.ar    1  UNL1        0.0149
     24 C          63.5127   82.1779   14.5110 C.ar    1  UNL1        0.0036
     25 C          63.4559   80.8901   13.7439 C.ar    1  UNL1        0.0297
     26 C          62.8485   80.8600   12.3727 C.ar    1  UNL1        0.1414
     27 F          62.7918   79.5722   11.6057 F       1  UNL1       -0.2041
     28 C          62.2979   82.1177   11.7685 C.ar    1  UNL1        0.0443
@<TRIPOS>BOND
     1    16    17    2
     2    17    18   am
     3    18     1    1
     4     1     2   ar
     5     2     3   ar
     6     3     4   ar
     7     4     7    1
     8     7     8    2
     9     8     9    1
    10     9    10    2
    11    10    11    1
    12    11    12    2
    13    12    13    1
    14    13    14    2
    15    14    15    1
    16     4     5   ar
    17     5     6   ar
    18    17    19   am
    19    19    22    1
    20    22    23   ar
    21    23    24   ar
    22    24    25   ar
    23    25    26   ar
    24    26    27    1
    25    26    28   ar
    26     6     1   ar
    27    28    22   ar
    28    15     7    1
    29    15    11    1
    30    18    20    1
    31    19    21    1
@<TRIPOS>MOLECULE
*****
 28 31 0 0 0
SMALL
GASTEIGER

@<TRIPOS>ATOM
      1 C          63.0947   88.1005   12.3471 C.ar    1  UNL1        0.0516
      2 C          63.8871   88.0958   13.6207 C.ar    1  UNL1        0.0147
      3 C          64.6387   89.3239   14.0410 C.ar    1  UNL1        0.0010
      4 C          64.5980   90.5569   13.1877 C.ar    1  UNL1       -0.0014
      5 C          63.8056   90.5617   11.9141 C.ar    1  UNL1        0.0010
      6 C          63.0540   89.3335   11.4938 C.ar    1  UNL1        0.0147
      7 C          65.3496   91.7851   13.6080 C.2     1  UNL1        0.0158
      8 C          65.8215   91.9275   15.0247 C.2     1  UNL1        0.0487
      9 C          66.5731   93.1555   15.4450 C.2     1  UNL1        0.2355
     10 N          66.8529   94.2414   14.4487 N.2     1  UNL1       -0.0325
     11 C          66.3811   94.0990   13.0319 C.2     1  UNL1        0.3799
     12 N          66.5079   94.9966   11.8369 N.2     1  UNL1       -0.0106
     13 C          65.8346   94.3232   10.6779 C.2     1  UNL1        0.3351
     14 N          65.2917   93.0094   11.1567 N.2     1  UNL1       -0.2103
     15 C          65.6294   92.8709   12.6116 C.3     1  UNL1        0.2404
     16 O          63.9079   85.4111   13.3985 O.2     1  UNL1       -0.2522
     17 C          62.7497   85.5276   12.4525 C.2     1  UNL1        0.3082
     18 N          62.3431   86.8724   11.9268 N.am    1  UNL1       -0.2681
     19 N          61.9981   84.2995   12.0322 N.am    1  UNL1       -0.2680
     20 H          61.5829   86.9490   11.3059 H       1  UNL1        0.1564
     21 H          61.2379   84.3761   11.4113 H       1  UNL1        0.1564
     22 C          62.4046   82.9547   12.5579 C.ar    1  UNL1        0.0538
     23 C          62.8193   82.8040   13.9916 C.ar    1  UNL1        0.0149
     24 C          63.2258   81.4593   14.5173 C.ar    1  UNL1        0.0036
     25 C          63.2178   80.2653   13.6094 C.ar    1  UNL1        0.0297
     26 C          62.8031   80.4160   12.1757 C.ar    1  UNL1        0.1414
     27 F          62.7950   79.2221   11.2678 F       1  UNL1       -0.2041
     28 C          62.3965   81.7608   11.6500 C.ar    1  UNL1        0.0443
@<TRIPOS>BOND
     1    16    17    2
     2    17    18   am
     3    18     1    1
     4     1     2   ar
     5     2     3   ar
     6     3     4   ar
     7     4     7    1
     8     7     8    2
     9     8     9    1
    10     9    10    2
    11    10    11    1
    12    11    12    2
    13    12    13    1
    14    13    14    2
    15    14    15    1
    16     4     5   ar
    17     5     6   ar
    18    17    19   am
    19    19    22    1
    20    22    23   ar
    21    23    24   ar
    22    24    25   ar
    23    25    26   ar
    24    26    27    1
    25    26    28   ar
    26     6     1   ar
    27    28    22   ar
    28    15     7    1
    29    15    11    1
    30    18    20    1
    31    19    21    1
@<TRIPOS>MOLECULE
*****
 28 31 0 0 0
SMALL
GASTEIGER

@<TRIPOS>ATOM
      1 C          62.3337   89.6191   12.9009 C.ar    1  UNL1        0.0516
      2 C          61.0609   90.1023   12.2711 C.ar    1  UNL1        0.0147
      3 C          60.4891   89.3810   11.0868 C.ar    1  UNL1        0.0010
      4 C          61.1901   88.1764   10.5321 C.ar    1  UNL1       -0.0014
      5 C          62.4628   87.6931   11.1618 C.ar    1  UNL1        0.0010
      6 C          63.0346   88.4145   12.3462 C.ar    1  UNL1        0.0147
      7 C          60.6182   87.4551    9.3477 C.2     1  UNL1        0.0158
      8 C          59.2265   87.7644    8.8814 C.2     1  UNL1        0.0487
      9 C          58.6547   87.0432    7.6971 C.2     1  UNL1        0.2355
     10 N          59.4745   86.0125    6.9790 N.2     1  UNL1       -0.0325
     11 C          60.8662   85.7031    7.4453 C.2     1  UNL1        0.3799
     12 N          61.9038   84.7444    6.9411 N.2     1  UNL1       -0.0106
     13 C          63.1169   84.8732    7.8138 C.2     1  UNL1        0.3351
     14 N          62.8291   85.9115    8.8574 N.2     1  UNL1       -0.2103
     15 C          61.4380   86.4244    8.6297 C.3     1  UNL1        0.2404
     16 O          65.1651   90.6083   12.8311 O.2     1  UNL1       -0.2522
     17 C          64.3213   90.8350   14.0503 C.2     1  UNL1        0.3082
     18 N          62.9055   90.3404   14.0851 N.am    1  UNL1       -0.2681
     19 N          64.8931   91.5563   15.2346 N.am    1  UNL1       -0.2680
     20 H          62.3517   90.4892   14.8853 H       1  UNL1        0.1564
     21 H          64.3392   91.7051   16.0348 H       1  UNL1        0.1564
     22 C          66.3088   92.0509   15.1998 C.ar    1  UNL1        0.0538
     23 C          66.8104   92.9655   16.2777 C.ar    1  UNL1        0.0149
     24 C          68.2260   93.4602   16.2429 C.ar    1  UNL1        0.0036
     25 C          69.1401   93.0402   15.1302 C.ar    1  UNL1        0.0297
     26 C          68.6385   92.1256   14.0523 C.ar    1  UNL1        0.1414
     27 F          69.5525   91.7057   12.9396 F       1  UNL1       -0.2041
     28 C          67.2228   91.6309   14.0871 C.ar    1  UNL1        0.0443
@<TRIPOS>BOND
     1    16    17    2
     2    17    18   am
     3    18     1    1
     4     1     2   ar
     5     2     3   ar
     6     3     4   ar
     7     4     7    1
     8     7     8    2
     9     8     9    1
    10     9    10    2
    11    10    11    1
    12    11    12    2
    13    12    13    1
    14    13    14    2
    15    14    15    1
    16     4     5   ar
    17     5     6   ar
    18    17    19   am
    19    19    22    1
    20    22    23   ar
    21    23    24   ar
    22    24    25   ar
    23    25    26   ar
    24    26    27    1
    25    26    28   ar
    26     6     1   ar
    27    28    22   ar
    28    15     7    1
    29    15    11    1
    30    18    20    1
    31    19    21    1
@<TRIPOS>MOLECULE
*****
 28 31 0 0 0
SMALL
GASTEIGER

@<TRIPOS>ATOM
      1 C          62.7849   87.2572   12.1279 C.ar    1  UNL1        0.0516
      2 C          63.4498   86.3775   13.1448 C.ar    1  UNL1        0.0147
      3 C          63.4889   84.8920   12.9407 C.ar    1  UNL1        0.0010
      4 C          62.8629   84.2861   11.7195 C.ar    1  UNL1       -0.0014
      5 C          62.1979   85.1657   10.7026 C.ar    1  UNL1        0.0010
      6 C          62.1589   86.6512   10.9068 C.ar    1  UNL1        0.0147
      7 C          62.9019   82.8005   11.5154 C.2     1  UNL1        0.0158
      8 C          63.4507   82.2329   10.2400 C.2     1  UNL1        0.0487
      9 C          63.4898   80.7475   10.0359 C.2     1  UNL1        0.2355
     10 N          62.9799   79.8295   11.1071 N.2     1  UNL1       -0.0325
     11 C          62.4311   80.3971   12.3824 C.2     1  UNL1        0.3799
     12 N          61.8618   79.7456   13.6078 N.2     1  UNL1       -0.0106
     13 C          61.4710   80.8286   14.5693 C.2     1  UNL1        0.3351
     14 N          61.7987   82.1493   13.9382 N.2     1  UNL1       -0.2103
     15 C          62.3921   81.8826   12.5866 C.3     1  UNL1        0.2404
     16 O          64.6868   88.5576   14.0492 O.2     1  UNL1       -0.2522
     17 C          63.6968   89.3929   13.2927 C.2     1  UNL1        0.3082
     18 N          62.7459   88.7426   12.3321 N.am    1  UNL1       -0.2681
     19 N          63.6578   90.8784   13.4969 N.am    1  UNL1       -0.2680
     20 H          62.0961   89.2908   11.8356 H       1  UNL1        0.1564
     21 H          63.0081   91.4266   13.0004 H       1  UNL1        0.1564
     22 C          64.6088   91.5287   14.4576 C.ar    1  UNL1        0.0538
     23 C          64.2116   91.7218   15.8911 C.ar    1  UNL1        0.0149
     24 C          65.1625   92.3720   16.8518 C.ar    1  UNL1        0.0036
     25 C          66.5106   92.8292   16.3789 C.ar    1  UNL1        0.0297
     26 C          66.9079   92.6361   14.9454 C.ar    1  UNL1        0.1414
     27 F          68.2559   93.0933   14.4726 F       1  UNL1       -0.2041
     28 C          65.9569   91.9858   13.9847 C.ar    1  UNL1        0.0443
@<TRIPOS>BOND
     1    16    17    2
     2    17    18   am
     3    18     1    1
     4     1     2   ar
     5     2     3   ar
     6     3     4   ar
     7     4     7    1
     8     7     8    2
     9     8     9    1
    10     9    10    2
    11    10    11    1
    12    11    12    2
    13    12    13    1
    14    13    14    2
    15    14    15    1
    16     4     5   ar
    17     5     6   ar
    18    17    19   am
    19    19    22    1
    20    22    23   ar
    21    23    24   ar
    22    24    25   ar
    23    25    26   ar
    24    26    27    1
    25    26    28   ar
    26     6     1   ar
    27    28    22   ar
    28    15     7    1
    29    15    11    1
    30    18    20    1
    31    19    21    1
@<TRIPOS>MOLECULE
*****
 28 31 0 0 0
SMALL
GASTEIGER

@<TRIPOS>ATOM
      1 C          60.1064   86.9200    9.4049 C.ar    1  UNL1        0.0516
      2 C          60.1267   87.5304   10.7750 C.ar    1  UNL1        0.0147
      3 C          61.0747   87.0095   11.8141 C.ar    1  UNL1        0.0010
      4 C          62.0024   85.8781   11.4833 C.ar    1  UNL1       -0.0014
      5 C          61.9821   85.2677   10.1132 C.ar    1  UNL1        0.0010
      6 C          61.0341   85.7887    9.0741 C.ar    1  UNL1        0.0147
      7 C          62.9504   85.3572   12.5225 C.2     1  UNL1        0.0158
      8 C          63.6654   86.3124   13.4316 C.2     1  UNL1        0.0487
      9 C          64.6133   85.7915   14.4707 C.2     1  UNL1        0.2355
     10 N          64.8464   84.3154   14.6009 N.2     1  UNL1       -0.0325
     11 C          64.1315   83.3602   13.6918 C.2     1  UNL1        0.3799
     12 N          64.1598   81.8643   13.5852 N.2     1  UNL1       -0.0106
     13 C          63.2293   81.4607   12.4801 C.2     1  UNL1        0.3351
     14 N          62.6259   82.7071   11.9037 N.2     1  UNL1       -0.2103
     15 C          63.1835   83.8812   12.6526 C.3     1  UNL1        0.2404
     16 O          60.8813   89.2724    7.7120 O.2     1  UNL1       -0.2522
     17 C          59.5458   88.6172    7.5193 C.2     1  UNL1        0.3082
     18 N          59.1584   87.4409    8.3657 N.am    1  UNL1       -0.2681
     19 N          58.5979   89.1381    6.4801 N.am    1  UNL1       -0.2680
     20 H          58.2819   87.0108    8.2392 H       1  UNL1        0.1564
     21 H          57.7214   88.7080    6.3536 H       1  UNL1        0.1564
     22 C          58.9853   90.3143    5.6336 C.ar    1  UNL1        0.0538
     23 C          57.9579   91.3425    5.2633 C.ar    1  UNL1        0.0149
     24 C          58.3453   92.5188    4.4169 C.ar    1  UNL1        0.0036
     25 C          59.7600   92.6667    3.9408 C.ar    1  UNL1        0.0297
     26 C          60.7874   91.6384    4.3111 C.ar    1  UNL1        0.1414
     27 F          62.2021   91.7863    3.8351 F       1  UNL1       -0.2041
     28 C          60.4000   90.4622    5.1576 C.ar    1  UNL1        0.0443
@<TRIPOS>BOND
     1    16    17    2
     2    17    18   am
     3    18     1    1
     4     1     2   ar
     5     2     3   ar
     6     3     4   ar
     7     4     7    1
     8     7     8    2
     9     8     9    1
    10     9    10    2
    11    10    11    1
    12    11    12    2
    13    12    13    1
    14    13    14    2
    15    14    15    1
    16     4     5   ar
    17     5     6   ar
    18    17    19   am
    19    19    22    1
    20    22    23   ar
    21    23    24   ar
    22    24    25   ar
    23    25    26   ar
    24    26    27    1
    25    26    28   ar
    26     6     1   ar
    27    28    22   ar
    28    15     7    1
    29    15    11    1
    30    18    20    1
    31    19    21    1
