@<TRIPOS>MOLECULE
*****
 27 30 0 0 0
SMALL
GASTEIGER

@<TRIPOS>ATOM
      1 C          63.1763   89.7888   14.4691 C.3     1  UNL1        0.1363
      2 N          63.9148   90.6700   13.5056 N.ar    1  UNL1       -0.2667
      3 C          63.4592   90.7697   12.0800 C.ar    1  UNL1        0.2036
      4 N          64.1976   91.6509   11.1165 N.ar    1  UNL1       -0.2148
      5 C          65.3917   92.4323   11.5787 C.ar    1  UNL1        0.0890
      6 C          65.8473   92.3325   13.0043 C.ar    1  UNL1        0.0800
      7 C          65.1088   91.4514   13.9678 C.ar    1  UNL1        0.2645
      8 O          65.5645   91.3517   15.3934 O.2     1  UNL1       -0.2668
      9 N          62.2651   89.9883   11.6178 N.pl3   1  UNL1       -0.2740
     10 C          60.9106   90.2779   12.1935 C.3     1  UNL1        0.1257
     11 C          59.7165   89.4964   11.7313 C.3     1  UNL1        0.1640
     12 O          59.8770   88.4255   10.6933 O.3     1  UNL1       -0.3483
     13 C          61.2315   88.1360   10.1176 C.3     1  UNL1        0.1572
     14 C          62.4255   88.9174   10.5798 C.3     1  UNL1        0.1276
     15 C          61.3920   87.0651    9.0796 C.ar    1  UNL1        0.0064
     16 C          62.6931   86.3286    8.9567 C.ar    1  UNL1        0.0004
     17 C          62.8535   85.2577    7.9188 C.ar    1  UNL1        0.0294
     18 C          61.7129   84.9232    7.0037 C.ar    1  UNL1        0.1401
     19 F          61.8734   83.8523    5.9658 F       1  UNL1       -0.2042
     20 C          60.4120   85.6596    7.1267 C.ar    1  UNL1        0.0294
     21 C          60.2515   86.7305    8.1646 C.ar    1  UNL1        0.0004
     22 C          66.1301   93.3134   10.6152 C.ar    1  UNL1        0.0210
     23 C          67.2994   92.7713    9.8478 C.ar    1  UNL1        0.0222
     24 C          68.0378   93.6524    8.8844 C.ar    1  UNL1        0.0989
     25 N          67.6070   95.0758    8.6883 N.ar    1  UNL1       -0.2423
     26 C          66.4378   95.6179    9.4556 C.ar    1  UNL1        0.0989
     27 C          65.6993   94.7368   10.4191 C.ar    1  UNL1        0.0222
@<TRIPOS>BOND
     1     1     2    1
     2     2     3   ar
     3     3     9    1
     4     9    10    1
     5    10    11    1
     6    11    12    1
     7    12    13    1
     8    13    15    1
     9    15    16   ar
    10    16    17   ar
    11    17    18   ar
    12    18    19    1
    13    18    20   ar
    14    20    21   ar
    15    13    14    1
    16     3     4   ar
    17     4     5   ar
    18     5    22    1
    19    22    23   ar
    20    23    24   ar
    21    24    25   ar
    22    25    26   ar
    23    26    27   ar
    24     5     6   ar
    25     6     7   ar
    26     7     8    2
    27     7     2   ar
    28    14     9    1
    29    27    22   ar
    30    21    15   ar
@<TRIPOS>MOLECULE
*****
 27 30 0 0 0
SMALL
GASTEIGER

@<TRIPOS>ATOM
      1 C          63.4478   90.0564   15.0224 C.3     1  UNL1        0.1363
      2 N          64.1440   90.9004   13.9963 N.ar    1  UNL1       -0.2667
      3 C          63.8040   90.7474   12.5434 C.ar    1  UNL1        0.2036
      4 N          64.5002   91.5915   11.5173 N.ar    1  UNL1       -0.2148
      5 C          65.5364   92.5885   11.9441 C.ar    1  UNL1        0.0890
      6 C          65.8764   92.7415   13.3970 C.ar    1  UNL1        0.0800
      7 C          65.1802   91.8974   14.4231 C.ar    1  UNL1        0.2645
      8 O          65.5203   92.0505   15.8760 O.2     1  UNL1       -0.2668
      9 N          62.7678   89.7504   12.1165 N.pl3   1  UNL1       -0.2740
     10 C          61.3408   90.1790   11.9440 C.3     1  UNL1        0.1257
     11 C          60.3045   89.1819   11.5171 C.3     1  UNL1        0.1640
     12 O          60.6954   87.7562   11.2628 O.3     1  UNL1       -0.3483
     13 C          62.1225   87.3276   11.4354 C.3     1  UNL1        0.1572
     14 C          63.1587   88.3247   11.8623 C.3     1  UNL1        0.1276
     15 C          62.5134   85.9019   11.1811 C.ar    1  UNL1        0.0064
     16 C          62.6022   84.9335   12.3232 C.ar    1  UNL1        0.0004
     17 C          62.9931   83.5078   12.0690 C.ar    1  UNL1        0.0294
     18 C          63.2952   83.0506   10.6726 C.ar    1  UNL1        0.1401
     19 F          63.6861   81.6249   10.4183 F       1  UNL1       -0.2042
     20 C          63.2064   84.0190    9.5306 C.ar    1  UNL1        0.0294
     21 C          62.8155   85.4447    9.7849 C.ar    1  UNL1        0.0004
     22 C          66.2326   93.4326   10.9180 C.ar    1  UNL1        0.0210
     23 C          67.2911   92.8289   10.0432 C.ar    1  UNL1        0.0222
     24 C          67.9873   93.6730    9.0171 C.ar    1  UNL1        0.0989
     25 N          67.6250   95.1207    8.8658 N.ar    1  UNL1       -0.2423
     26 C          66.5665   95.7243    9.7405 C.ar    1  UNL1        0.0989
     27 C          65.8703   94.8802   10.7666 C.ar    1  UNL1        0.0222
@<TRIPOS>BOND
     1     1     2    1
     2     2     3   ar
     3     3     9    1
     4     9    10    1
     5    10    11    1
     6    11    12    1
     7    12    13    1
     8    13    15    1
     9    15    16   ar
    10    16    17   ar
    11    17    18   ar
    12    18    19    1
    13    18    20   ar
    14    20    21   ar
    15    13    14    1
    16     3     4   ar
    17     4     5   ar
    18     5    22    1
    19    22    23   ar
    20    23    24   ar
    21    24    25   ar
    22    25    26   ar
    23    26    27   ar
    24     5     6   ar
    25     6     7   ar
    26     7     8    2
    27     7     2   ar
    28    14     9    1
    29    27    22   ar
    30    21    15   ar
@<TRIPOS>MOLECULE
*****
 27 30 0 0 0
SMALL
GASTEIGER

@<TRIPOS>ATOM
      1 C          61.2482   90.4769   10.8081 C.3     1  UNL1        0.1363
      2 N          61.6408   89.0654   11.1301 N.ar    1  UNL1       -0.2667
      3 C          62.7886   88.7993   12.0583 C.ar    1  UNL1        0.2036
      4 N          63.1811   87.3878   12.3802 N.ar    1  UNL1       -0.2148
      5 C          62.4258   86.2425   11.7739 C.ar    1  UNL1        0.0890
      6 C          61.2780   86.5086   10.8457 C.ar    1  UNL1        0.0800
      7 C          60.8855   87.9201   10.5238 C.ar    1  UNL1        0.2645
      8 O          59.7376   88.1861    9.5955 O.2     1  UNL1       -0.2668
      9 N          63.5439   89.9447   12.6647 N.pl3   1  UNL1       -0.2740
     10 C          63.5375   90.1441   14.1513 C.3     1  UNL1        0.1257
     11 C          64.2928   91.2895   14.7577 C.3     1  UNL1        0.1640
     12 O          65.0546   92.2354   13.8774 O.3     1  UNL1       -0.3483
     13 C          65.0610   92.0359   12.3906 C.3     1  UNL1        0.1572
     14 C          64.3056   90.8906   11.7843 C.3     1  UNL1        0.1276
     15 C          65.8227   92.9819   11.5103 C.ar    1  UNL1        0.0064
     16 C          66.6252   92.4530   10.3586 C.ar    1  UNL1        0.0004
     17 C          67.3870   93.3990    9.4782 C.ar    1  UNL1        0.0294
     18 C          67.3462   94.8737    9.7496 C.ar    1  UNL1        0.1401
     19 F          68.1079   95.8196    8.8693 F       1  UNL1       -0.2042
     20 C          66.5437   95.4024   10.9013 C.ar    1  UNL1        0.0294
     21 C          65.7819   94.4565   11.7816 C.ar    1  UNL1        0.0004
     22 C          62.8184   84.8310   12.0959 C.ar    1  UNL1        0.0210
     23 C          62.7725   84.3447   13.5141 C.ar    1  UNL1        0.0222
     24 C          63.1651   82.9332   13.8360 C.ar    1  UNL1        0.0989
     25 N          63.6034   82.0080   12.7397 N.ar    1  UNL1       -0.2423
     26 C          63.6492   82.4943   11.3215 C.ar    1  UNL1        0.0989
     27 C          63.2567   83.9058   10.9996 C.ar    1  UNL1        0.0222
@<TRIPOS>BOND
     1     1     2    1
     2     2     3   ar
     3     3     9    1
     4     9    10    1
     5    10    11    1
     6    11    12    1
     7    12    13    1
     8    13    15    1
     9    15    16   ar
    10    16    17   ar
    11    17    18   ar
    12    18    19    1
    13    18    20   ar
    14    20    21   ar
    15    13    14    1
    16     3     4   ar
    17     4     5   ar
    18     5    22    1
    19    22    23   ar
    20    23    24   ar
    21    24    25   ar
    22    25    26   ar
    23    26    27   ar
    24     5     6   ar
    25     6     7   ar
    26     7     8    2
    27     7     2   ar
    28    14     9    1
    29    27    22   ar
    30    21    15   ar
@<TRIPOS>MOLECULE
*****
 27 30 0 0 0
SMALL
GASTEIGER

@<TRIPOS>ATOM
      1 C          63.3985   89.9435   15.0555 C.3     1  UNL1        0.1363
      2 N          64.1025   90.7812   14.0295 N.ar    1  UNL1       -0.2667
      3 C          63.8690   90.5316   12.5690 C.ar    1  UNL1        0.2036
      4 N          64.5730   91.3693   11.5430 N.ar    1  UNL1       -0.2148
      5 C          65.5105   92.4566   11.9775 C.ar    1  UNL1        0.0890
      6 C          65.7440   92.7062   13.4380 C.ar    1  UNL1        0.0800
      7 C          65.0400   91.8685   14.4640 C.ar    1  UNL1        0.2645
      8 O          65.2736   92.1182   15.9246 O.2     1  UNL1       -0.2668
      9 N          62.9315   89.4443   12.1344 N.pl3   1  UNL1       -0.2740
     10 C          61.6180   89.7953   11.5008 C.3     1  UNL1        0.1257
     11 C          60.6805   88.7080   11.0663 C.3     1  UNL1        0.1640
     12 O          61.0565   87.2696   11.2653 O.3     1  UNL1       -0.3483
     13 C          62.3701   86.9185   11.8990 C.3     1  UNL1        0.1572
     14 C          63.3075   88.0059   12.3335 C.3     1  UNL1        0.1276
     15 C          62.7461   85.4801   12.0980 C.ar    1  UNL1        0.0064
     16 C          62.5905   84.5015   10.9719 C.ar    1  UNL1        0.0004
     17 C          62.9665   83.0631   11.1709 C.ar    1  UNL1        0.0294
     18 C          63.4981   82.6034   12.4961 C.ar    1  UNL1        0.1401
     19 F          63.8742   81.1650   12.6952 F       1  UNL1       -0.2042
     20 C          63.6537   83.5820   13.6222 C.ar    1  UNL1        0.0294
     21 C          63.2777   85.0204   13.4231 C.ar    1  UNL1        0.0004
     22 C          66.2145   93.2943   10.9515 C.ar    1  UNL1        0.0210
     23 C          65.6765   94.6471   10.5904 C.ar    1  UNL1        0.0222
     24 C          66.3805   95.4848    9.5644 C.ar    1  UNL1        0.0989
     25 N          67.6224   94.9696    8.8994 N.ar    1  UNL1       -0.2423
     26 C          68.1604   93.6168    9.2605 C.ar    1  UNL1        0.0989
     27 C          67.4564   92.7791   10.2865 C.ar    1  UNL1        0.0222
@<TRIPOS>BOND
     1     1     2    1
     2     2     3   ar
     3     3     9    1
     4     9    10    1
     5    10    11    1
     6    11    12    1
     7    12    13    1
     8    13    15    1
     9    15    16   ar
    10    16    17   ar
    11    17    18   ar
    12    18    19    1
    13    18    20   ar
    14    20    21   ar
    15    13    14    1
    16     3     4   ar
    17     4     5   ar
    18     5    22    1
    19    22    23   ar
    20    23    24   ar
    21    24    25   ar
    22    25    26   ar
    23    26    27   ar
    24     5     6   ar
    25     6     7   ar
    26     7     8    2
    27     7     2   ar
    28    14     9    1
    29    27    22   ar
    30    21    15   ar
@<TRIPOS>MOLECULE
*****
 27 30 0 0 0
SMALL
GASTEIGER

@<TRIPOS>ATOM
      1 C          62.1920   87.3882    8.4547 C.3     1  UNL1        0.1363
      2 N          62.3866   86.2683    9.4335 N.ar    1  UNL1       -0.2667
      3 C          62.2942   86.5352   10.9066 C.ar    1  UNL1        0.2036
      4 N          62.4889   85.4153   11.8854 N.ar    1  UNL1       -0.2148
      5 C          62.7759   84.0285   11.3910 C.ar    1  UNL1        0.0890
      6 C          62.8683   83.7617    9.9179 C.ar    1  UNL1        0.0800
      7 C          62.6737   84.8815    8.9391 C.ar    1  UNL1        0.2645
      8 O          62.7661   84.6146    7.4659 O.2     1  UNL1       -0.2668
      9 N          62.0072   87.9220   11.4011 N.pl3   1  UNL1       -0.2740
     10 C          60.6095   88.4636   11.3458 C.3     1  UNL1        0.1257
     11 C          60.3225   89.8505   11.8402 C.3     1  UNL1        0.1640
     12 O          61.4331   90.6956   12.3900 O.3     1  UNL1       -0.3483
     13 C          62.8308   90.1538   12.4453 C.3     1  UNL1        0.1572
     14 C          63.1178   88.7671   11.9508 C.3     1  UNL1        0.1276
     15 C          63.9415   90.9990   12.9950 C.ar    1  UNL1        0.0064
     16 C          64.6522   91.9751   12.1049 C.ar    1  UNL1        0.0004
     17 C          65.7629   92.8202   12.6547 C.ar    1  UNL1        0.0294
     18 C          66.1629   92.6892   14.0945 C.ar    1  UNL1        0.1401
     19 F          67.2735   93.5343   14.6442 F       1  UNL1       -0.2042
     20 C          65.4522   91.7130   14.9844 C.ar    1  UNL1        0.0294
     21 C          64.3415   90.8679   14.4347 C.ar    1  UNL1        0.0004
     22 C          62.9706   82.9087   12.3698 C.ar    1  UNL1        0.0210
     23 C          63.6159   83.1763   13.6971 C.ar    1  UNL1        0.0222
     24 C          63.8105   82.0564   14.6759 C.ar    1  UNL1        0.0989
     25 N          63.3599   80.6689   14.3273 N.ar    1  UNL1       -0.2423
     26 C          62.7145   80.4012   13.0000 C.ar    1  UNL1        0.0989
     27 C          62.5199   81.5211   12.0212 C.ar    1  UNL1        0.0222
@<TRIPOS>BOND
     1     1     2    1
     2     2     3   ar
     3     3     9    1
     4     9    10    1
     5    10    11    1
     6    11    12    1
     7    12    13    1
     8    13    15    1
     9    15    16   ar
    10    16    17   ar
    11    17    18   ar
    12    18    19    1
    13    18    20   ar
    14    20    21   ar
    15    13    14    1
    16     3     4   ar
    17     4     5   ar
    18     5    22    1
    19    22    23   ar
    20    23    24   ar
    21    24    25   ar
    22    25    26   ar
    23    26    27   ar
    24     5     6   ar
    25     6     7   ar
    26     7     8    2
    27     7     2   ar
    28    14     9    1
    29    27    22   ar
    30    21    15   ar
