@<TRIPOS>MOLECULE
*****
 45 49 0 0 0
SMALL
GASTEIGER

@<TRIPOS>ATOM
      1 C          61.4632   88.6332    9.7102 C.3     1  UNL1        0.1390
      2 C          60.7474   89.8551    9.2157 C.3     1  UNL1        0.0932
      3 N          59.7095   89.7324    8.1397 N.3     1  UNL1       -0.2883
      4 C          59.3875   88.3877    7.5582 C.3     1  UNL1        0.1555
      5 C          60.1033   87.1657    8.0527 C.2     1  UNL1        0.2456
      6 O          59.7813   85.8211    7.4712 O.2     1  UNL1       -0.2730
      7 N          61.1412   87.2885    9.1287 N.am    1  UNL1       -0.2541
      8 H          60.0164   90.3219    7.3660 H       1  UNL1        0.1237
      9 C          61.8570   86.0666    9.6232 C.ar    1  UNL1        0.0542
     10 C          62.8094   85.3389    8.7213 C.ar    1  UNL1        0.0180
     11 C          63.5252   84.1169    9.2158 C.ar    1  UNL1        0.0382
     12 C          63.2887   83.6228   10.6122 C.ar    1  UNL1        0.1386
     13 C          62.3364   84.3506   11.5140 C.ar    1  UNL1        0.0382
     14 C          61.6205   85.5725   11.0196 C.ar    1  UNL1        0.0180
     15 O          64.0045   82.4009   11.1067 O.3     1  UNL1       -0.4754
     16 C          63.3345   81.0605   11.0394 C.3     1  UNL1        0.2080
     17 C          62.8354   80.4077   12.2943 C.3     1  UNL1        0.0794
     18 C          61.9203   81.1571   13.2167 C.3     1  UNL1        0.1465
     19 O          62.3801   81.5200   14.5976 O.3     1  UNL1       -0.3488
     20 C          62.1718   82.9121   15.1159 C.3     1  UNL1        0.1716
     21 C          63.2802   83.9188   15.0278 C.ar    1  UNL1        0.0413
     22 C          64.4789   83.6415   14.1695 C.ar    1  UNL1        0.0012
     23 C          65.5873   84.6483   14.0815 C.ar    1  UNL1       -0.0000
     24 C          65.4971   85.9324   14.8516 C.ar    1  UNL1        0.0031
     25 C          64.2985   86.2097   15.7098 C.ar    1  UNL1        0.0367
     26 C          63.1901   85.2029   15.7979 C.ar    1  UNL1        0.1370
     27 O          61.9915   85.4801   16.6560 O.3     1  UNL1       -0.4717
     28 C          62.0490   86.5561   17.6997 C.3     1  UNL1        0.2525
     29 C          62.5011   88.7559   10.7862 C.3     1  UNL1        0.2267
     30 O          62.1251   89.3006   12.1323 O.3     1  UNL1       -0.4736
     31 N          65.7110   93.0341   12.5820 N.pl3   1  UNL1       -0.3076
     32 C          66.7289   93.7651   13.4063 C.3     1  UNL1        0.0911
     33 C          66.9718   93.3603   14.8300 C.3     1  UNL1        0.0261
     34 C          66.1969   92.2245   15.4295 C.3     1  UNL1        0.0294
     35 C          65.1790   91.4935   14.6052 C.ar    1  UNL1       -0.0086
     36 C          64.4039   90.3577   15.2046 C.ar    1  UNL1        0.0001
     37 C          63.3860   89.6267   14.3803 C.ar    1  UNL1        0.0367
     38 C          63.1431   90.0316   12.9566 C.ar    1  UNL1        0.1398
     39 C          63.9180   91.1673   12.3571 C.ar    1  UNL1        0.0511
     40 C          64.9360   91.8984   13.1814 C.ar    1  UNL1        0.0468
     41 C          65.4680   93.4390   11.1582 C.3     1  UNL1        0.0934
     42 C          66.1403   94.6581   10.6000 C.3     1  UNL1        0.0535
     43 C          67.3218   94.5117    9.6875 C.3     1  UNL1        0.1440
     44 C          68.7326   92.4328    9.0259 C.3     1  UNL1        0.1741
     45 O          68.3976   93.5164   10.0074 O.3     1  UNL1       -0.3510
@<TRIPOS>BOND
     1    44    45    1
     2    45    43    1
     3    43    42    1
     4    42    41    1
     5    41    31    1
     6    31    32    1
     7    32    33    1
     8    33    34    1
     9    34    35    1
    10    35    36   ar
    11    36    37   ar
    12    37    38   ar
    13    38    30    1
    14    30    29    1
    15     1    29    1
    16     1     2    1
    17     2     3    1
    18     3     4    1
    19     4     5    1
    20     5     6    2
    21     5     7   am
    22     7     9    1
    23     9    10   ar
    24    10    11   ar
    25    11    12   ar
    26    12    15    1
    27    15    16    1
    28    16    17    1
    29    17    18    1
    30    18    19    1
    31    19    20    1
    32    20    21    1
    33    21    22   ar
    34    22    23   ar
    35    23    24   ar
    36    24    25   ar
    37    25    26   ar
    38    26    27    1
    39    27    28    1
    40    12    13   ar
    41    13    14   ar
    42    38    39   ar
    43    39    40   ar
    44    40    31    1
    45    40    35   ar
    46     7     1    1
    47    14     9   ar
    48    26    21   ar
    49     3     8    1
@<TRIPOS>MOLECULE
*****
 45 49 0 0 0
SMALL
GASTEIGER

@<TRIPOS>ATOM
      1 C          64.5950   91.8694   12.3504 C.3     1  UNL1        0.1390
      2 C          65.2656   92.7493   11.3375 C.3     1  UNL1        0.0932
      3 N          66.6986   93.1512   11.5247 N.3     1  UNL1       -0.2883
      4 C          67.4610   92.6731   12.7248 C.3     1  UNL1        0.1555
      5 C          66.7903   91.7932   13.7377 C.2     1  UNL1        0.2456
      6 O          67.5526   91.3152   14.9378 O.2     1  UNL1       -0.2730
      7 N          65.3573   91.3914   13.5505 N.am    1  UNL1       -0.2541
      8 H          66.7175   94.1707   11.5507 H       1  UNL1        0.1237
      9 C          64.6866   90.5115   14.5634 C.ar    1  UNL1        0.0542
     10 C          64.6144   89.0300   14.3393 C.ar    1  UNL1        0.0180
     11 C          63.9437   88.1501   15.3522 C.ar    1  UNL1        0.0382
     12 C          63.3453   88.7516   16.5892 C.ar    1  UNL1        0.1386
     13 C          63.4176   90.2330   16.8133 C.ar    1  UNL1        0.0382
     14 C          64.0882   91.1129   15.8004 C.ar    1  UNL1        0.0180
     15 O          62.6747   87.8717   17.6021 O.3     1  UNL1       -0.4754
     16 C          62.0256   86.5903   17.1699 C.3     1  UNL1        0.2080
     17 C          62.8718   85.4278   16.7428 C.3     1  UNL1        0.0794
     18 C          62.3698   84.4799   15.6943 C.3     1  UNL1        0.1465
     19 O          62.9767   83.1142   15.5654 O.3     1  UNL1       -0.3488
     20 C          64.1607   82.9011   14.6694 C.3     1  UNL1        0.1716
     21 C          63.9557   82.6074   13.2128 C.ar    1  UNL1        0.0413
     22 C          64.5972   83.4793   12.1744 C.ar    1  UNL1        0.0012
     23 C          64.3923   83.1856   10.7178 C.ar    1  UNL1       -0.0000
     24 C          63.5458   82.0199   10.2996 C.ar    1  UNL1        0.0031
     25 C          62.9044   81.1480   11.3380 C.ar    1  UNL1        0.0367
     26 C          63.1093   81.4418   12.7946 C.ar    1  UNL1        0.1370
     27 O          62.4678   80.5700   13.8330 O.3     1  UNL1       -0.4717
     28 C          60.9912   80.6613   14.0810 C.3     1  UNL1        0.2525
     29 C          63.1620   91.4676   12.1632 C.3     1  UNL1        0.2267
     30 O          62.5983   91.3222   10.7808 O.3     1  UNL1       -0.4736
     31 N          59.5470   88.4447    7.7132 N.pl3   1  UNL1       -0.3076
     32 C          59.0911   87.1011    7.2267 C.3     1  UNL1        0.0911
     33 C          59.7048   85.8525    7.7874 C.3     1  UNL1        0.0261
     34 C          60.7745   85.9476    8.8346 C.3     1  UNL1        0.0294
     35 C          61.2304   87.2912    9.3211 C.ar    1  UNL1       -0.0086
     36 C          62.3001   87.3863   10.3684 C.ar    1  UNL1        0.0001
     37 C          62.7560   88.7300   10.8550 C.ar    1  UNL1        0.0367
     38 C          62.1423   89.9785   10.2942 C.ar    1  UNL1        0.1398
     39 C          61.0726   89.8835    9.2470 C.ar    1  UNL1        0.0511
     40 C          60.6167   88.5398    8.7604 C.ar    1  UNL1        0.0468
     41 C          58.9333   89.6933    7.1524 C.3     1  UNL1        0.0934
     42 C          59.3925   90.2248    5.8271 C.3     1  UNL1        0.0535
     43 C          58.5758   91.2586    5.1099 C.3     1  UNL1        0.1440
     44 C          59.8681   92.7188    3.3929 C.3     1  UNL1        0.1741
     45 O          59.1954   92.5695    4.7253 O.3     1  UNL1       -0.3510
@<TRIPOS>BOND
     1    44    45    1
     2    45    43    1
     3    43    42    1
     4    42    41    1
     5    41    31    1
     6    31    32    1
     7    32    33    1
     8    33    34    1
     9    34    35    1
    10    35    36   ar
    11    36    37   ar
    12    37    38   ar
    13    38    30    1
    14    30    29    1
    15     1    29    1
    16     1     2    1
    17     2     3    1
    18     3     4    1
    19     4     5    1
    20     5     6    2
    21     5     7   am
    22     7     9    1
    23     9    10   ar
    24    10    11   ar
    25    11    12   ar
    26    12    15    1
    27    15    16    1
    28    16    17    1
    29    17    18    1
    30    18    19    1
    31    19    20    1
    32    20    21    1
    33    21    22   ar
    34    22    23   ar
    35    23    24   ar
    36    24    25   ar
    37    25    26   ar
    38    26    27    1
    39    27    28    1
    40    12    13   ar
    41    13    14   ar
    42    38    39   ar
    43    39    40   ar
    44    40    31    1
    45    40    35   ar
    46     7     1    1
    47    14     9   ar
    48    26    21   ar
    49     3     8    1
@<TRIPOS>MOLECULE
*****
 45 49 0 0 0
SMALL
GASTEIGER

@<TRIPOS>ATOM
      1 C          61.6562   87.0393    9.2594 C.3     1  UNL1        0.1390
      2 C          60.8884   86.2147    8.2692 C.3     1  UNL1        0.0932
      3 N          59.7018   86.8019    7.5642 N.3     1  UNL1       -0.2883
      4 C          59.2829   88.2137    7.8494 C.3     1  UNL1        0.1555
      5 C          60.0507   89.0383    8.8396 C.2     1  UNL1        0.2456
      6 O          59.6319   90.4501    9.1248 O.2     1  UNL1       -0.2730
      7 N          61.2374   88.4511    9.5446 N.am    1  UNL1       -0.2541
      8 H          58.9033   86.2073    7.7864 H       1  UNL1        0.1237
      9 C          62.0053   89.2757   10.5348 C.ar    1  UNL1        0.0542
     10 C          62.8524   90.4195   10.0614 C.ar    1  UNL1        0.0180
     11 C          63.6202   91.2441   11.0516 C.ar    1  UNL1        0.0382
     12 C          63.5409   90.9249   12.5151 C.ar    1  UNL1        0.1386
     13 C          62.6938   89.7811   12.9884 C.ar    1  UNL1        0.0382
     14 C          61.9259   88.9565   11.9982 C.ar    1  UNL1        0.0180
     15 O          64.3087   91.7495   13.5053 O.3     1  UNL1       -0.4754
     16 C          65.3877   91.1157   14.3325 C.3     1  UNL1        0.2080
     17 C          66.7913   91.6405   14.2639 C.3     1  UNL1        0.0794
     18 C          67.0870   93.0488   14.6872 C.3     1  UNL1        0.1465
     19 O          66.8869   94.1797   13.7223 O.3     1  UNL1       -0.3488
     20 C          66.1266   93.9537   12.4492 C.3     1  UNL1        0.1716
     21 C          66.8655   93.6772   11.1734 C.ar    1  UNL1        0.0413
     22 C          67.3770   92.2965   10.8871 C.ar    1  UNL1        0.0012
     23 C          68.1159   92.0200    9.6113 C.ar    1  UNL1       -0.0000
     24 C          68.3433   93.1243    8.6218 C.ar    1  UNL1        0.0031
     25 C          67.8318   94.5049    8.9082 C.ar    1  UNL1        0.0367
     26 C          67.0929   94.7814   10.1840 C.ar    1  UNL1        0.1370
     27 O          66.5814   96.1621   10.4703 O.3     1  UNL1       -0.4717
     28 C          65.1650   96.5223   10.1323 C.3     1  UNL1        0.2525
     29 C          62.8429   86.4521    9.9643 C.3     1  UNL1        0.2267
     30 O          63.4592   85.1798    9.4630 O.3     1  UNL1       -0.4736
     31 N          62.2397   82.7299   13.8801 N.pl3   1  UNL1       -0.3076
     32 C          62.0673   81.4570   14.6547 C.3     1  UNL1        0.0911
     33 C          62.3323   80.1360   13.9952 C.3     1  UNL1        0.0261
     34 C          62.7696   80.0880   12.5612 C.3     1  UNL1        0.0294
     35 C          62.9420   81.3609   11.7867 C.ar    1  UNL1       -0.0086
     36 C          63.3793   81.3130   10.3526 C.ar    1  UNL1        0.0001
     37 C          63.5517   82.5859    9.5781 C.ar    1  UNL1        0.0367
     38 C          63.2868   83.9068   10.2376 C.ar    1  UNL1        0.1398
     39 C          62.8495   83.9548   11.6716 C.ar    1  UNL1        0.0511
     40 C          62.6770   82.6819   12.4462 C.ar    1  UNL1        0.0468
     41 C          61.9748   84.0508   14.5396 C.3     1  UNL1        0.0934
     42 C          62.6928   84.4146   15.8054 C.3     1  UNL1        0.0535
     43 C          63.6257   85.5890   15.8275 C.3     1  UNL1        0.1440
     44 C          62.6409   86.6986   17.9603 C.3     1  UNL1        0.1741
     45 O          63.2613   86.8219   16.6002 O.3     1  UNL1       -0.3510
@<TRIPOS>BOND
     1    44    45    1
     2    45    43    1
     3    43    42    1
     4    42    41    1
     5    41    31    1
     6    31    32    1
     7    32    33    1
     8    33    34    1
     9    34    35    1
    10    35    36   ar
    11    36    37   ar
    12    37    38   ar
    13    38    30    1
    14    30    29    1
    15     1    29    1
    16     1     2    1
    17     2     3    1
    18     3     4    1
    19     4     5    1
    20     5     6    2
    21     5     7   am
    22     7     9    1
    23     9    10   ar
    24    10    11   ar
    25    11    12   ar
    26    12    15    1
    27    15    16    1
    28    16    17    1
    29    17    18    1
    30    18    19    1
    31    19    20    1
    32    20    21    1
    33    21    22   ar
    34    22    23   ar
    35    23    24   ar
    36    24    25   ar
    37    25    26   ar
    38    26    27    1
    39    27    28    1
    40    12    13   ar
    41    13    14   ar
    42    38    39   ar
    43    39    40   ar
    44    40    31    1
    45    40    35   ar
    46     7     1    1
    47    14     9   ar
    48    26    21   ar
    49     3     8    1
@<TRIPOS>MOLECULE
*****
 45 49 0 0 0
SMALL
GASTEIGER

@<TRIPOS>ATOM
      1 C          63.5019   82.1446   11.1975 C.3     1  UNL1        0.1390
      2 C          63.2966   80.9914   10.2605 C.3     1  UNL1        0.0932
      3 N          62.8630   79.6587   10.7950 N.3     1  UNL1       -0.2883
      4 C          62.6347   79.4791   12.2667 C.3     1  UNL1        0.1555
      5 C          62.8399   80.6323   13.2037 C.2     1  UNL1        0.2456
      6 O          62.6116   80.4528   14.6753 O.2     1  UNL1       -0.2730
      7 N          63.2735   81.9651   12.6691 N.am    1  UNL1       -0.2541
      8 H          63.5797   78.9854   10.5240 H       1  UNL1        0.1237
      9 C          63.4788   83.1183   13.6061 C.ar    1  UNL1        0.0542
     10 C          62.3510   83.5867   14.4772 C.ar    1  UNL1        0.0180
     11 C          62.5562   84.7399   15.4143 C.ar    1  UNL1        0.0382
     12 C          63.8892   85.4247   15.4801 C.ar    1  UNL1        0.1386
     13 C          65.0169   84.9563   14.6090 C.ar    1  UNL1        0.0382
     14 C          64.8117   83.8031   13.6720 C.ar    1  UNL1        0.0180
     15 O          64.0945   86.5779   16.4172 O.3     1  UNL1       -0.4754
     16 C          62.9479   87.4851   16.7524 C.3     1  UNL1        0.2080
     17 C          63.1462   88.9719   16.7629 C.3     1  UNL1        0.0794
     18 C          63.1097   89.7425   15.4766 C.3     1  UNL1        0.1465
     19 O          63.7616   91.0907   15.3912 O.3     1  UNL1       -0.3488
     20 C          65.1404   91.2219   14.8153 C.3     1  UNL1        0.1716
     21 C          65.3207   91.6728   13.3961 C.ar    1  UNL1        0.0413
     22 C          64.2269   91.4506   12.3939 C.ar    1  UNL1        0.0012
     23 C          64.4072   91.9014   10.9747 C.ar    1  UNL1       -0.0000
     24 C          65.6813   92.5744   10.5576 C.ar    1  UNL1        0.0031
     25 C          66.7750   92.7965   11.5597 C.ar    1  UNL1        0.0367
     26 C          66.5947   92.3457   12.9790 C.ar    1  UNL1        0.1370
     27 O          67.6885   92.5677   13.9811 O.3     1  UNL1       -0.4717
     28 C          67.5849   93.6932   14.9674 C.3     1  UNL1        0.2525
     29 C          63.9354   83.4773   10.6630 C.3     1  UNL1        0.2267
     30 O          62.9865   84.3020    9.8447 O.3     1  UNL1       -0.4736
     31 N          60.3206   88.7047    9.1308 N.pl3   1  UNL1       -0.3076
     32 C          59.8794   90.0507    9.6243 C.3     1  UNL1        0.0911
     33 C          60.3299   90.5414   10.9682 C.3     1  UNL1        0.0261
     34 C          61.2216   89.6862   11.8187 C.3     1  UNL1        0.0294
     35 C          61.6628   88.3402   11.3252 C.ar    1  UNL1       -0.0086
     36 C          62.5546   87.4848   12.1757 C.ar    1  UNL1        0.0001
     37 C          62.9958   86.1388   11.6822 C.ar    1  UNL1        0.0367
     38 C          62.5452   85.6481   10.3382 C.ar    1  UNL1        0.1398
     39 C          61.6535   86.5034    9.4878 C.ar    1  UNL1        0.0511
     40 C          61.2123   87.8494    9.9812 C.ar    1  UNL1        0.0468
     41 C          59.8701   88.2140    7.7868 C.3     1  UNL1        0.0934
     42 C          58.9087   89.0296    6.9742 C.3     1  UNL1        0.0535
     43 C          59.4247   90.0004    5.9538 C.3     1  UNL1        0.1440
     44 C          59.0246   92.1404    4.5359 C.3     1  UNL1        0.1741
     45 O          58.4839   90.9623    5.2906 O.3     1  UNL1       -0.3510
@<TRIPOS>BOND
     1    44    45    1
     2    45    43    1
     3    43    42    1
     4    42    41    1
     5    41    31    1
     6    31    32    1
     7    32    33    1
     8    33    34    1
     9    34    35    1
    10    35    36   ar
    11    36    37   ar
    12    37    38   ar
    13    38    30    1
    14    30    29    1
    15     1    29    1
    16     1     2    1
    17     2     3    1
    18     3     4    1
    19     4     5    1
    20     5     6    2
    21     5     7   am
    22     7     9    1
    23     9    10   ar
    24    10    11   ar
    25    11    12   ar
    26    12    15    1
    27    15    16    1
    28    16    17    1
    29    17    18    1
    30    18    19    1
    31    19    20    1
    32    20    21    1
    33    21    22   ar
    34    22    23   ar
    35    23    24   ar
    36    24    25   ar
    37    25    26   ar
    38    26    27    1
    39    27    28    1
    40    12    13   ar
    41    13    14   ar
    42    38    39   ar
    43    39    40   ar
    44    40    31    1
    45    40    35   ar
    46     7     1    1
    47    14     9   ar
    48    26    21   ar
    49     3     8    1
@<TRIPOS>MOLECULE
*****
 45 49 0 0 0
SMALL
GASTEIGER

@<TRIPOS>ATOM
      1 C          63.5990   87.9115   15.1728 C.3     1  UNL1        0.1390
      2 C          63.4873   89.1777   15.9692 C.3     1  UNL1        0.0932
      3 N          63.1071   89.1207   17.4190 N.3     1  UNL1       -0.2883
      4 C          62.8384   87.7975   18.0725 C.3     1  UNL1        0.1555
      5 C          62.9500   86.5313   17.2761 C.2     1  UNL1        0.2456
      6 O          62.6814   85.2082   17.9296 O.2     1  UNL1       -0.2730
      7 N          63.3303   86.5883   15.8262 N.am    1  UNL1       -0.2541
      8 H          62.2592   89.6781   17.5232 H       1  UNL1        0.1237
      9 C          63.4419   85.3221   15.0298 C.ar    1  UNL1        0.0542
     10 C          64.7665   84.9092   14.4595 C.ar    1  UNL1        0.0180
     11 C          64.8781   83.6429   13.6630 C.ar    1  UNL1        0.0382
     12 C          63.6652   82.7897   13.4370 C.ar    1  UNL1        0.1386
     13 C          62.3408   83.2027   14.0073 C.ar    1  UNL1        0.0382
     14 C          62.2292   84.4689   14.8037 C.ar    1  UNL1        0.0180
     15 O          63.7768   81.5235   12.6406 O.3     1  UNL1       -0.4754
     16 C          63.4924   81.5363   11.1678 C.3     1  UNL1        0.2080
     17 C          64.2314   82.4833   10.2694 C.3     1  UNL1        0.0794
     18 C          63.6287   83.8122    9.9222 C.3     1  UNL1        0.1465
     19 O          62.6609   84.4658   10.8636 O.3     1  UNL1       -0.3488
     20 C          62.3439   85.9248   10.7198 C.3     1  UNL1        0.1716
     21 C          61.2955   86.3721    9.7447 C.ar    1  UNL1        0.0413
     22 C          61.2318   85.7576    8.3777 C.ar    1  UNL1        0.0012
     23 C          60.1834   86.2048    7.4025 C.ar    1  UNL1       -0.0000
     24 C          59.1988   87.2665    7.7943 C.ar    1  UNL1        0.0031
     25 C          59.2625   87.8809    9.1612 C.ar    1  UNL1        0.0367
     26 C          60.3109   87.4337   10.1364 C.ar    1  UNL1        0.1370
     27 O          60.3747   88.0480   11.5033 O.3     1  UNL1       -0.4717
     28 C          59.8533   89.4367   11.7265 C.3     1  UNL1        0.2525
     29 C          63.9792   87.9685   13.7229 C.3     1  UNL1        0.2267
     30 O          63.1774   88.8040   12.7695 O.3     1  UNL1       -0.4736
     31 N          65.9464   93.1372   13.5149 N.pl3   1  UNL1       -0.3076
     32 C          66.5082   94.4259   12.9919 C.3     1  UNL1        0.0911
     33 C          66.2472   94.8368   11.5730 C.3     1  UNL1        0.0261
     34 C          65.4245   93.9589   10.6773 C.3     1  UNL1        0.0294
     35 C          64.8628   92.6702   11.2003 C.ar    1  UNL1       -0.0086
     36 C          64.0400   91.7923   10.3045 C.ar    1  UNL1        0.0001
     37 C          63.4783   90.5036   10.8276 C.ar    1  UNL1        0.0367
     38 C          63.7392   90.0927   12.2464 C.ar    1  UNL1        0.1398
     39 C          64.5619   90.9706   13.1422 C.ar    1  UNL1        0.0511
     40 C          65.1237   92.2594   12.6192 C.ar    1  UNL1        0.0468
     41 C          66.2074   92.7264   14.9338 C.3     1  UNL1        0.0934
     42 C          67.4549   93.1839   15.6297 C.3     1  UNL1        0.0535
     43 C          68.7402   92.4357   15.4340 C.3     1  UNL1        0.1440
     44 C          68.9757   91.6290   12.9756 C.3     1  UNL1        0.1741
     45 O          69.4453   92.4893   14.1111 O.3     1  UNL1       -0.3510
@<TRIPOS>BOND
     1    44    45    1
     2    45    43    1
     3    43    42    1
     4    42    41    1
     5    41    31    1
     6    31    32    1
     7    32    33    1
     8    33    34    1
     9    34    35    1
    10    35    36   ar
    11    36    37   ar
    12    37    38   ar
    13    38    30    1
    14    30    29    1
    15     1    29    1
    16     1     2    1
    17     2     3    1
    18     3     4    1
    19     4     5    1
    20     5     6    2
    21     5     7   am
    22     7     9    1
    23     9    10   ar
    24    10    11   ar
    25    11    12   ar
    26    12    15    1
    27    15    16    1
    28    16    17    1
    29    17    18    1
    30    18    19    1
    31    19    20    1
    32    20    21    1
    33    21    22   ar
    34    22    23   ar
    35    23    24   ar
    36    24    25   ar
    37    25    26   ar
    38    26    27    1
    39    27    28    1
    40    12    13   ar
    41    13    14   ar
    42    38    39   ar
    43    39    40   ar
    44    40    31    1
    45    40    35   ar
    46     7     1    1
    47    14     9   ar
    48    26    21   ar
    49     3     8    1
@<TRIPOS>MOLECULE
*****
 45 49 0 0 0
SMALL
GASTEIGER

@<TRIPOS>ATOM
      1 C          63.7518   82.5539   11.3099 C.3     1  UNL1        0.1390
      2 C          63.4702   81.2327   10.6580 C.3     1  UNL1        0.0932
      3 N          62.8081   80.1368   11.4395 N.3     1  UNL1       -0.2883
      4 C          62.4277   80.3621   12.8729 C.3     1  UNL1        0.1555
      5 C          62.7093   81.6834   13.5248 C.2     1  UNL1        0.2456
      6 O          62.3290   81.9087   14.9581 O.2     1  UNL1       -0.2730
      7 N          63.3714   82.7793   12.7433 N.am    1  UNL1       -0.2541
      8 H          63.4442   79.3395   11.4255 H       1  UNL1        0.1237
      9 C          63.6531   84.1005   13.3952 C.ar    1  UNL1        0.0542
     10 C          63.1166   85.3644   12.7910 C.ar    1  UNL1        0.0180
     11 C          63.3983   86.6857   13.4429 C.ar    1  UNL1        0.0382
     12 C          64.2163   86.7431   14.6989 C.ar    1  UNL1        0.1386
     13 C          64.7527   85.4792   15.3030 C.ar    1  UNL1        0.0382
     14 C          64.4711   84.1580   14.6511 C.ar    1  UNL1        0.0180
     15 O          64.4980   88.0643   15.3508 O.3     1  UNL1       -0.4754
     16 C          64.7956   89.2685   14.5073 C.3     1  UNL1        0.2080
     17 C          64.0955   90.5668   14.7800 C.3     1  UNL1        0.0794
     18 C          64.1152   91.6597   13.7529 C.3     1  UNL1        0.1465
     19 O          65.1424   91.6433   12.6599 O.3     1  UNL1       -0.3488
     20 C          66.1919   92.7134   12.6009 C.3     1  UNL1        0.1716
     21 C          66.8576   93.0399   11.2970 C.ar    1  UNL1        0.0413
     22 C          67.7324   92.0226   10.6261 C.ar    1  UNL1        0.0012
     23 C          68.3982   92.3491    9.3222 C.ar    1  UNL1       -0.0000
     24 C          68.1891   93.6929    8.6891 C.ar    1  UNL1        0.0031
     25 C          67.3143   94.7101    9.3600 C.ar    1  UNL1        0.0367
     26 C          66.6486   94.3835   10.6639 C.ar    1  UNL1        0.1370
     27 O          65.7738   95.4007   11.3348 O.3     1  UNL1       -0.4717
     28 C          66.1352   96.8554   11.2773 C.3     1  UNL1        0.2525
     29 C          64.4139   83.6498   10.5285 C.3     1  UNL1        0.2267
     30 O          64.1759   83.7674    9.0522 O.3     1  UNL1       -0.4736
     31 N          60.7837   87.6564    9.6599 N.pl3   1  UNL1       -0.3076
     32 C          59.6272   88.4632    9.1485 C.3     1  UNL1        0.0911
     33 C          59.0101   88.1322    7.8220 C.3     1  UNL1        0.0261
     34 C          59.5495   86.9945    7.0068 C.3     1  UNL1        0.0294
     35 C          60.7061   86.1877    7.5182 C.ar    1  UNL1       -0.0086
     36 C          61.2456   85.0500    6.7030 C.ar    1  UNL1        0.0001
     37 C          62.4022   84.2432    7.2143 C.ar    1  UNL1        0.0367
     38 C          63.0193   84.5742    8.5408 C.ar    1  UNL1        0.1398
     39 C          62.4798   85.7119    9.3560 C.ar    1  UNL1        0.0511
     40 C          61.3232   86.5187    8.8447 C.ar    1  UNL1        0.0468
     41 C          61.4008   87.9874   10.9864 C.3     1  UNL1        0.0934
     42 C          60.9778   89.2238   11.7228 C.3     1  UNL1        0.0535
     43 C          61.6682   90.5286   11.4565 C.3     1  UNL1        0.1440
     44 C          63.4834   91.6332    9.9616 C.3     1  UNL1        0.1741
     45 O          62.2343   90.8138   10.0970 O.3     1  UNL1       -0.3510
@<TRIPOS>BOND
     1    44    45    1
     2    45    43    1
     3    43    42    1
     4    42    41    1
     5    41    31    1
     6    31    32    1
     7    32    33    1
     8    33    34    1
     9    34    35    1
    10    35    36   ar
    11    36    37   ar
    12    37    38   ar
    13    38    30    1
    14    30    29    1
    15     1    29    1
    16     1     2    1
    17     2     3    1
    18     3     4    1
    19     4     5    1
    20     5     6    2
    21     5     7   am
    22     7     9    1
    23     9    10   ar
    24    10    11   ar
    25    11    12   ar
    26    12    15    1
    27    15    16    1
    28    16    17    1
    29    17    18    1
    30    18    19    1
    31    19    20    1
    32    20    21    1
    33    21    22   ar
    34    22    23   ar
    35    23    24   ar
    36    24    25   ar
    37    25    26   ar
    38    26    27    1
    39    27    28    1
    40    12    13   ar
    41    13    14   ar
    42    38    39   ar
    43    39    40   ar
    44    40    31    1
    45    40    35   ar
    46     7     1    1
    47    14     9   ar
    48    26    21   ar
    49     3     8    1
@<TRIPOS>MOLECULE
*****
 45 49 0 0 0
SMALL
GASTEIGER

@<TRIPOS>ATOM
      1 C          63.6851   82.9959   11.5419 C.3     1  UNL1        0.1390
      2 C          63.3842   81.6190   11.0284 C.3     1  UNL1        0.0932
      3 N          62.7683   80.5974   11.9378 N.3     1  UNL1       -0.2883
      4 C          62.4532   80.9527   13.3607 C.3     1  UNL1        0.1555
      5 C          62.7541   82.3296   13.8742 C.2     1  UNL1        0.2456
      6 O          62.4391   82.6848   15.2970 O.2     1  UNL1       -0.2730
      7 N          63.3701   83.3512   12.9647 N.am    1  UNL1       -0.2541
      8 H          63.4095   79.8047   11.9672 H       1  UNL1        0.1237
      9 C          63.6710   84.7281   13.4782 C.ar    1  UNL1        0.0542
     10 C          63.1579   85.9312   12.7437 C.ar    1  UNL1        0.0180
     11 C          63.4588   87.3080   13.2572 C.ar    1  UNL1        0.0382
     12 C          64.2728   87.4818   14.5052 C.ar    1  UNL1        0.1386
     13 C          64.7858   86.2787   15.2396 C.ar    1  UNL1        0.0382
     14 C          64.4849   84.9019   14.7261 C.ar    1  UNL1        0.0180
     15 O          64.5737   88.8587   15.0187 O.3     1  UNL1       -0.4754
     16 C          65.0233   89.9309   14.0710 C.3     1  UNL1        0.2080
     17 C          64.1195   91.0881   13.7644 C.3     1  UNL1        0.0794
     18 C          63.9087   91.5191   12.3432 C.3     1  UNL1        0.1465
     19 O          65.0596   92.0526   11.5427 O.3     1  UNL1       -0.3488
     20 C          65.8880   93.1814   12.0806 C.3     1  UNL1        0.1716
     21 C          66.3418   94.2807   11.1665 C.ar    1  UNL1        0.0413
     22 C          65.9593   95.7022   11.4554 C.ar    1  UNL1        0.0012
     23 C          66.4131   96.8015   10.5412 C.ar    1  UNL1       -0.0000
     24 C          67.2492   96.4794    9.3382 C.ar    1  UNL1        0.0031
     25 C          67.6316   95.0580    9.0494 C.ar    1  UNL1        0.0367
     26 C          67.1779   93.9587    9.9635 C.ar    1  UNL1        0.1370
     27 O          67.5603   92.5373    9.6747 O.3     1  UNL1       -0.4717
     28 C          68.8027   92.2398    8.8886 C.3     1  UNL1        0.2525
     29 C          64.3010   84.0175   10.6326 C.3     1  UNL1        0.2267
     30 O          64.0083   83.9860    9.1618 O.3     1  UNL1       -0.4736
     31 N          61.0943   88.2880    9.2158 N.pl3   1  UNL1       -0.3076
     32 C          59.9586   89.0947    8.6597 C.3     1  UNL1        0.0911
     33 C          59.1441   88.5573    7.5206 C.3     1  UNL1        0.0261
     34 C          59.4653   87.2131    6.9375 C.3     1  UNL1        0.0294
     35 C          60.6010   86.4064    7.4935 C.ar    1  UNL1       -0.0086
     36 C          60.9222   85.0622    6.9104 C.ar    1  UNL1        0.0001
     37 C          62.0579   84.2554    7.4665 C.ar    1  UNL1        0.0367
     38 C          62.8725   84.7928    8.6057 C.ar    1  UNL1        0.1398
     39 C          62.5513   86.1370    9.1888 C.ar    1  UNL1        0.0511
     40 C          61.4155   86.9438    8.6327 C.ar    1  UNL1        0.0468
     41 C          61.9089   88.8254   10.3550 C.3     1  UNL1        0.0934
     42 C          61.2346   89.2402   11.6290 C.3     1  UNL1        0.0535
     43 C          60.3213   90.4301   11.6412 C.3     1  UNL1        0.1440
     44 C          58.4577   88.9900   12.7381 C.3     1  UNL1        0.1741
     45 O          58.9231   90.2970   12.1679 O.3     1  UNL1       -0.3510
@<TRIPOS>BOND
     1    44    45    1
     2    45    43    1
     3    43    42    1
     4    42    41    1
     5    41    31    1
     6    31    32    1
     7    32    33    1
     8    33    34    1
     9    34    35    1
    10    35    36   ar
    11    36    37   ar
    12    37    38   ar
    13    38    30    1
    14    30    29    1
    15     1    29    1
    16     1     2    1
    17     2     3    1
    18     3     4    1
    19     4     5    1
    20     5     6    2
    21     5     7   am
    22     7     9    1
    23     9    10   ar
    24    10    11   ar
    25    11    12   ar
    26    12    15    1
    27    15    16    1
    28    16    17    1
    29    17    18    1
    30    18    19    1
    31    19    20    1
    32    20    21    1
    33    21    22   ar
    34    22    23   ar
    35    23    24   ar
    36    24    25   ar
    37    25    26   ar
    38    26    27    1
    39    27    28    1
    40    12    13   ar
    41    13    14   ar
    42    38    39   ar
    43    39    40   ar
    44    40    31    1
    45    40    35   ar
    46     7     1    1
    47    14     9   ar
    48    26    21   ar
    49     3     8    1
@<TRIPOS>MOLECULE
*****
 45 49 0 0 0
SMALL
GASTEIGER

@<TRIPOS>ATOM
      1 C          63.5457   82.3260   11.4457 C.3     1  UNL1        0.1390
      2 C          63.4239   81.2442   10.4137 C.3     1  UNL1        0.0932
      3 N          62.9376   79.8816   10.8094 N.3     1  UNL1       -0.2883
      4 C          62.5730   79.6006   12.2370 C.3     1  UNL1        0.1555
      5 C          62.6948   80.6823   13.2690 C.2     1  UNL1        0.2456
      6 O          62.3302   80.4014   14.6967 O.2     1  UNL1       -0.2730
      7 N          63.1812   82.0450   12.8734 N.am    1  UNL1       -0.2541
      8 H          63.6738   79.2218   10.5581 H       1  UNL1        0.1237
      9 C          63.3029   83.1268   13.9053 C.ar    1  UNL1        0.0542
     10 C          62.0888   83.5866   14.6567 C.ar    1  UNL1        0.0180
     11 C          62.2105   84.6683   15.6887 C.ar    1  UNL1        0.0382
     12 C          63.5464   85.2903   15.9693 C.ar    1  UNL1        0.1386
     13 C          64.7605   84.8304   15.2179 C.ar    1  UNL1        0.0382
     14 C          64.6387   83.7487   14.1860 C.ar    1  UNL1        0.0180
     15 O          63.6682   86.3720   17.0013 O.3     1  UNL1       -0.4754
     16 C          62.7540   87.5603   16.9537 C.3     1  UNL1        0.2080
     17 C          63.3261   88.9430   16.8499 C.3     1  UNL1        0.0794
     18 C          62.6720   89.9608   15.9632 C.3     1  UNL1        0.1465
     19 O          63.4612   91.1308   15.4551 O.3     1  UNL1       -0.3488
     20 C          64.9326   90.9894   15.2008 C.3     1  UNL1        0.1716
     21 C          65.5356   91.5572   13.9503 C.ar    1  UNL1        0.0413
     22 C          64.6684   91.8336   12.7580 C.ar    1  UNL1        0.0012
     23 C          65.2714   92.4014   11.5074 C.ar    1  UNL1       -0.0000
     24 C          66.7417   92.6929   11.4491 C.ar    1  UNL1        0.0031
     25 C          67.6089   92.4165   12.6414 C.ar    1  UNL1        0.0367
     26 C          67.0059   91.8487   13.8919 C.ar    1  UNL1        0.1370
     27 O          67.8731   91.5724   15.0842 O.3     1  UNL1       -0.4717
     28 C          68.8148   92.6261   15.5871 C.3     1  UNL1        0.2525
     29 C          64.0320   83.6886   11.0501 C.3     1  UNL1        0.2267
     30 O          64.1411   84.0541    9.5994 O.3     1  UNL1       -0.4736
     31 N          60.6444   87.8978    9.5908 N.pl3   1  UNL1       -0.3076
     32 C          59.5247   88.6338    8.9166 C.3     1  UNL1        0.0911
     33 C          59.0337   88.1841    7.5726 C.3     1  UNL1        0.0261
     34 C          59.6623   86.9983    6.9027 C.3     1  UNL1        0.0294
     35 C          60.7819   86.2623    7.5768 C.ar    1  UNL1       -0.0086
     36 C          61.4106   85.0765    6.9069 C.ar    1  UNL1        0.0001
     37 C          62.5303   84.3405    7.5811 C.ar    1  UNL1        0.0367
     38 C          63.0213   84.7902    8.9252 C.ar    1  UNL1        0.1398
     39 C          62.3927   85.9760    9.5951 C.ar    1  UNL1        0.0511
     40 C          61.2730   86.7121    8.9209 C.ar    1  UNL1        0.0468
     41 C          61.1355   88.3475   10.9349 C.3     1  UNL1        0.0934
     42 C          62.4112   89.1288   11.0444 C.3     1  UNL1        0.0535
     43 C          63.0317   89.3671   12.3891 C.3     1  UNL1        0.1440
     44 C          63.3113   86.8184   12.8090 C.3     1  UNL1        0.1741
     45 O          63.6887   88.2358   13.1231 O.3     1  UNL1       -0.3510
@<TRIPOS>BOND
     1    44    45    1
     2    45    43    1
     3    43    42    1
     4    42    41    1
     5    41    31    1
     6    31    32    1
     7    32    33    1
     8    33    34    1
     9    34    35    1
    10    35    36   ar
    11    36    37   ar
    12    37    38   ar
    13    38    30    1
    14    30    29    1
    15     1    29    1
    16     1     2    1
    17     2     3    1
    18     3     4    1
    19     4     5    1
    20     5     6    2
    21     5     7   am
    22     7     9    1
    23     9    10   ar
    24    10    11   ar
    25    11    12   ar
    26    12    15    1
    27    15    16    1
    28    16    17    1
    29    17    18    1
    30    18    19    1
    31    19    20    1
    32    20    21    1
    33    21    22   ar
    34    22    23   ar
    35    23    24   ar
    36    24    25   ar
    37    25    26   ar
    38    26    27    1
    39    27    28    1
    40    12    13   ar
    41    13    14   ar
    42    38    39   ar
    43    39    40   ar
    44    40    31    1
    45    40    35   ar
    46     7     1    1
    47    14     9   ar
    48    26    21   ar
    49     3     8    1
