@<TRIPOS>MOLECULE
*****
 46 52 0 0 0
SMALL
GASTEIGER

@<TRIPOS>ATOM
      1 N          61.7386   85.1037   10.7038 N.3     1  UNL1       -0.2676
      2 C          61.2483   86.1935   11.6104 C.3     1  UNL1        0.0746
      3 C          60.7800   87.4960   11.0323 C.3     1  UNL1        0.0449
      4 C          60.8021   87.7087    9.5476 C.3     1  UNL1        0.1391
      5 C          61.2924   86.6189    8.6410 C.3     1  UNL1        0.0449
      6 C          61.7606   85.3164    9.2191 C.3     1  UNL1        0.0746
      7 C          60.7662   88.0646    8.0909 C.2     1  UNL1        0.2529
      8 O          61.1922   87.1806    6.9565 O.2     1  UNL1       -0.2724
      9 N          60.2294   89.4600    7.9677 N.am    1  UNL1       -0.1907
     10 C          59.9336   89.9663    9.3484 C.2     1  UNL1        0.3219
     11 O          59.3809   91.3177    9.6922 O.2     1  UNL1       -0.2512
     12 N          60.2875   88.8840   10.3248 N.am    1  UNL1       -0.2222
     13 C          60.1509   88.9631   11.8164 C.ar    1  UNL1        0.1453
     14 C          61.3141   89.4056   12.6537 C.ar    1  UNL1        0.0922
     15 C          61.1774   89.4846   14.1454 C.ar    1  UNL1        0.2259
     16 O          62.3406   89.9272   14.9827 O.3     1  UNL1       -0.4919
     17 N          59.8775   89.1211   14.7998 N.ar    1  UNL1       -0.1894
     18 C          58.7143   88.6785   13.9625 C.ar    1  UNL1        0.2027
     19 N          58.8510   88.5995   12.4709 N.ar    1  UNL1       -0.2084
     20 H          63.1526   90.1543   14.5740 H       1  UNL1        0.2938
     21 C          60.0244   90.2161    6.6886 C.ar    1  UNL1        0.0622
     22 C          61.2064   90.6174    5.8569 C.ar    1  UNL1        0.0154
     23 C          61.0014   91.3735    4.5778 C.ar    1  UNL1        0.0013
     24 C          59.6145   91.7283    4.1303 C.ar    1  UNL1        0.0001
     25 C          58.4324   91.3270    4.9620 C.ar    1  UNL1        0.0013
     26 C          58.6374   90.5708    6.2411 C.ar    1  UNL1        0.0154
     27 C          59.4095   92.4844    2.8511 C.ar    1  UNL1        0.0000
     28 C          58.4139   91.9946    1.8416 C.ar    1  UNL1        0.0000
     29 C          58.2090   92.7507    0.5625 C.ar    1  UNL1        0.0015
     30 C          58.9996   93.9967    0.2928 C.ar    1  UNL1        0.0171
     31 C          59.9951   94.4865    1.3023 C.ar    1  UNL1        0.0015
     32 C          60.2001   93.7303    2.5815 C.ar    1  UNL1        0.0000
     33 C          58.7946   94.7528   -0.9864 C.ar    1  UNL1        0.0754
     34 C          57.7141   95.7586   -1.2526 C.ar    1  UNL1        0.0409
     35 C          57.8859   96.2633   -2.6546 C.ar    1  UNL1        0.1214
     36 N          59.0725   95.5694   -3.2549 N.ar    1  UNL1       -0.1711
     37 N          59.6342   94.6359   -2.2239 N.ar    1  UNL1       -0.2757
     38 H          60.4165   94.0494   -2.3391 H       1  UNL1        0.1889
     39 C          62.2069   83.8011   11.2818 C.3     1  UNL1        0.1183
     40 C          61.9416   81.4106   13.0748 C.3     1  UNL1        0.0323
     41 C          62.7733   82.5823   13.5053 C.ar    1  UNL1       -0.0069
     42 C          63.4724   82.5588   14.8322 C.ar    1  UNL1       -0.0015
     43 C          64.3041   83.7305   15.2626 C.ar    1  UNL1        0.0203
     44 C          64.4367   84.9258   14.3662 C.ar    1  UNL1        0.0985
     45 N          63.7377   84.9494   13.0392 N.ar    1  UNL1       -0.2471
     46 C          62.9059   83.7776   12.6087 C.ar    1  UNL1        0.0712
@<TRIPOS>BOND
     1    40    41    1
     2    41    42   ar
     3    42    43   ar
     4    43    44   ar
     5    44    45   ar
     6    45    46   ar
     7    46    39    1
     8    39     1    1
     9     1     2    1
    10     2     3    1
    11     3     4    1
    12     4     5    1
    13     5     6    1
    14     4     7    1
    15     7     8    2
    16     7     9   am
    17     9    21    1
    18    21    22   ar
    19    22    23   ar
    20    23    24   ar
    21    24    27    1
    22    27    28   ar
    23    28    29   ar
    24    29    30   ar
    25    30    33    1
    26    33    34   ar
    27    34    35   ar
    28    35    36   ar
    29    36    37   ar
    30    30    31   ar
    31    31    32   ar
    32    24    25   ar
    33    25    26   ar
    34     9    10   am
    35    10    11    2
    36    10    12   am
    37    12    13    1
    38    13    14   ar
    39    14    15   ar
    40    15    16    1
    41    15    17   ar
    42    17    18   ar
    43    18    19   ar
    44    46    41   ar
    45     6     1    1
    46    26    21   ar
    47    19    13   ar
    48    12     4    1
    49    32    27   ar
    50    37    33   ar
    51    37    38    1
    52    16    20    1
