@<TRIPOS>MOLECULE
*****
 19 20 0 0 0
SMALL
GASTEIGER

@<TRIPOS>ATOM
      1 C          64.0283   83.8861   12.8601 C.3     1  UNL1        0.0544
      2 C          62.9820   84.8738   12.4362 C.3     1  UNL1        0.0234
      3 C          62.6147   85.0021   10.9875 C.3     1  UNL1        0.0629
      4 C          63.2936   84.1426    9.9627 C.3     1  UNL1        0.0247
      5 C          64.3398   83.1548   10.3866 C.3     1  UNL1        0.0690
      6 N          64.7072   83.0266   11.8352 N.3     1  UNL1       -0.2985
      7 H          65.7063   83.2200   11.9039 H       1  UNL1        0.1232
      8 C          61.5685   85.9900   10.5637 C.ar    1  UNL1        0.1547
      9 C          61.0825   86.2128    9.1623 C.ar    1  UNL1        0.0986
     10 C          60.0382   87.2889    9.1994 C.ar    1  UNL1        0.2884
     11 O          59.2855   87.8282    8.0193 O.2     1  UNL1       -0.2645
     12 N          59.8787   87.7312   10.6239 N.ar    1  UNL1       -0.1839
     13 O          60.8245   86.9283   11.4670 O.2     1  UNL1       -0.3802
     14 H          59.2616   88.4263   10.9484 H       1  UNL1        0.2107
     15 C          64.3956   83.7578   14.3087 C.3     1  UNL1        0.0157
     16 C          65.0957   85.6572   14.9425 C.3     1  UNL1        0.0000
     17 C          63.9268   84.7859   15.2952 C.3     1  UNL1        0.0013
     18 C          62.7580   83.9146   15.6479 C.3     1  UNL1        0.0000
     19 C          63.4580   85.8141   16.2817 C.3     1  UNL1        0.0000
@<TRIPOS>BOND
     1    16    17    1
     2    17    18    1
     3    17    19    1
     4    17    15    1
     5     1    15    1
     6     1     2    1
     7     2     3    1
     8     3     8    1
     9     8     9   ar
    10     9    10   ar
    11    10    11    2
    12    10    12   ar
    13    12    13   ar
    14     3     4    1
    15     4     5    1
    16     5     6    1
    17     6     1    1
    18    13     8   ar
    19    12    14    1
    20     6     7    1
@<TRIPOS>MOLECULE
*****
 19 20 0 0 0
SMALL
GASTEIGER

@<TRIPOS>ATOM
      1 C          61.2411   86.3272    9.6765 C.3     1  UNL1        0.0544
      2 C          61.6083   85.5596   10.9117 C.3     1  UNL1        0.0234
      3 C          62.7284   84.5628   10.8700 C.3     1  UNL1        0.0629
      4 C          63.4812   84.3335    9.5931 C.3     1  UNL1        0.0247
      5 C          63.1140   85.1011    8.3578 C.3     1  UNL1        0.0690
      6 N          61.9939   86.0980    8.3995 N.3     1  UNL1       -0.2985
      7 H          61.3098   85.8014    7.7036 H       1  UNL1        0.1232
      8 C          63.0956   83.7952   12.1054 C.ar    1  UNL1        0.1547
      9 C          62.7996   82.3477   12.3645 C.ar    1  UNL1        0.0986
     10 C          63.3444   81.9982   13.7177 C.ar    1  UNL1        0.2884
     11 O          63.2696   80.6534   14.3779 O.2     1  UNL1       -0.2645
     12 N          63.9770   83.2298   14.2949 N.ar    1  UNL1       -0.1839
     13 O          63.8233   84.3403   13.2984 O.2     1  UNL1       -0.3802
     14 H          64.4161   83.2973   15.1735 H       1  UNL1        0.2107
     15 C          60.1210   87.3241    9.7182 C.3     1  UNL1        0.0157
     16 C          60.5342   89.2695    8.9804 C.3     1  UNL1        0.0000
     17 C          59.7525   88.0902    8.4824 C.3     1  UNL1        0.0013
     18 C          58.9707   86.9109    7.9844 C.3     1  UNL1        0.0000
     19 C          59.3838   88.8563    7.2465 C.3     1  UNL1        0.0000
@<TRIPOS>BOND
     1    16    17    1
     2    17    18    1
     3    17    19    1
     4    17    15    1
     5     1    15    1
     6     1     2    1
     7     2     3    1
     8     3     8    1
     9     8     9   ar
    10     9    10   ar
    11    10    11    2
    12    10    12   ar
    13    12    13   ar
    14     3     4    1
    15     4     5    1
    16     5     6    1
    17     6     1    1
    18    13     8   ar
    19    12    14    1
    20     6     7    1
@<TRIPOS>MOLECULE
*****
 19 20 0 0 0
SMALL
GASTEIGER

@<TRIPOS>ATOM
      1 C          65.8153   92.9540   12.2562 C.3     1  UNL1        0.0544
      2 C          65.0635   91.8175   12.8831 C.3     1  UNL1        0.0234
      3 C          65.1999   91.5478   14.3524 C.3     1  UNL1        0.0629
      4 C          66.0882   92.4146   15.1947 C.3     1  UNL1        0.0247
      5 C          66.8400   93.5511   14.5678 C.3     1  UNL1        0.0690
      6 N          66.7036   93.8208   13.0986 N.3     1  UNL1       -0.2985
      7 H          67.6402   93.7583   12.6995 H       1  UNL1        0.1232
      8 C          64.4480   90.4112   14.9793 C.ar    1  UNL1        0.1547
      9 C          64.6150   88.9568   14.6524 C.ar    1  UNL1        0.0986
     10 C          63.6673   88.1763   15.5142 C.ar    1  UNL1        0.2884
     11 O          63.5014   86.6854   15.5161 O.2     1  UNL1       -0.2645
     12 N          62.9147   89.1483   16.3738 N.ar    1  UNL1       -0.1839
     13 O          63.3972   90.5295   16.0431 O.2     1  UNL1       -0.3802
     14 H          62.2251   88.9198   17.0382 H       1  UNL1        0.2107
     15 C          65.6789   93.2237   10.7870 C.3     1  UNL1        0.0157
     16 C          66.2082   95.0998    9.9505 C.3     1  UNL1        0.0000
     17 C          66.8500   93.7453   10.0083 C.3     1  UNL1        0.0013
     18 C          67.4917   92.3907   10.0661 C.3     1  UNL1        0.0000
     19 C          68.0211   94.2668    9.2295 C.3     1  UNL1        0.0000
@<TRIPOS>BOND
     1    16    17    1
     2    17    18    1
     3    17    19    1
     4    17    15    1
     5     1    15    1
     6     1     2    1
     7     2     3    1
     8     3     8    1
     9     8     9   ar
    10     9    10   ar
    11    10    11    2
    12    10    12   ar
    13    12    13   ar
    14     3     4    1
    15     4     5    1
    16     5     6    1
    17     6     1    1
    18    13     8   ar
    19    12    14    1
    20     6     7    1
@<TRIPOS>MOLECULE
*****
 19 20 0 0 0
SMALL
GASTEIGER

@<TRIPOS>ATOM
      1 C          65.2623   91.6865   13.7269 C.3     1  UNL1        0.0544
      2 C          65.0638   90.4381   14.5342 C.3     1  UNL1        0.0234
      3 C          64.1546   89.3562   14.0312 C.3     1  UNL1        0.0629
      4 C          63.4438   89.5229   12.7209 C.3     1  UNL1        0.0247
      5 C          63.6423   90.7714   11.9136 C.3     1  UNL1        0.0690
      6 N          64.5515   91.8532   12.4165 N.3     1  UNL1       -0.2985
      7 H          63.9877   92.6998   12.4930 H       1  UNL1        0.1232
      8 C          63.9562   88.1077   14.8386 C.ar    1  UNL1        0.1547
      9 C          64.3779   86.7242   14.4410 C.ar    1  UNL1        0.0986
     10 C          63.9835   85.7850   15.5421 C.ar    1  UNL1        0.2884
     11 O          64.2142   84.3029   15.5616 O.2     1  UNL1       -0.2645
     12 N          63.3180   86.5880   16.6202 N.ar    1  UNL1       -0.1839
     13 O          63.3011   88.0235   16.1855 O.2     1  UNL1       -0.3802
     14 H          62.9559   86.2349   17.4649 H       1  UNL1        0.2107
     15 C          66.1715   92.7684   14.2298 C.3     1  UNL1        0.0157
     16 C          66.9240   92.8815   16.2099 C.3     1  UNL1        0.0000
     17 C          67.4678   92.4100   14.8939 C.3     1  UNL1        0.0013
     18 C          68.0117   91.9385   13.5779 C.3     1  UNL1        0.0000
     19 C          68.7643   92.0516   15.5580 C.3     1  UNL1        0.0000
@<TRIPOS>BOND
     1    16    17    1
     2    17    18    1
     3    17    19    1
     4    17    15    1
     5     1    15    1
     6     1     2    1
     7     2     3    1
     8     3     8    1
     9     8     9   ar
    10     9    10   ar
    11    10    11    2
    12    10    12   ar
    13    12    13   ar
    14     3     4    1
    15     4     5    1
    16     5     6    1
    17     6     1    1
    18    13     8   ar
    19    12    14    1
    20     6     7    1
@<TRIPOS>MOLECULE
*****
 19 20 0 0 0
SMALL
GASTEIGER

@<TRIPOS>ATOM
      1 C          61.1653   87.4439   11.0647 C.3     1  UNL1        0.0544
      2 C          62.2887   88.4355   10.9967 C.3     1  UNL1        0.0234
      3 C          62.0414   89.8740   11.3424 C.3     1  UNL1        0.0629
      4 C          60.6706   90.3210   11.7561 C.3     1  UNL1        0.0247
      5 C          59.5472   89.3295   11.8241 C.3     1  UNL1        0.0690
      6 N          59.7945   87.8909   11.4784 N.3     1  UNL1       -0.2985
      7 H          59.1651   87.6604   10.7095 H       1  UNL1        0.1232
      8 C          63.1649   90.8656   11.2744 C.ar    1  UNL1        0.1547
      9 C          64.1057   91.2101   12.3907 C.ar    1  UNL1        0.0986
     10 C          65.0671   92.2441   11.8843 C.ar    1  UNL1        0.2884
     11 O          66.1797   92.8731   12.6695 O.2     1  UNL1       -0.2645
     12 N          64.7205   92.5387   10.4549 N.ar    1  UNL1       -0.1839
     13 O          63.5450   91.6867   10.0779 O.2     1  UNL1       -0.3802
     14 H          65.1834   93.1788    9.8673 H       1  UNL1        0.2107
     15 C          61.4126   86.0054   10.7190 C.3     1  UNL1        0.0157
     16 C          61.1896   86.4651    8.6602 C.3     1  UNL1        0.0000
     17 C          62.1589   85.6526    9.4667 C.3     1  UNL1        0.0013
     18 C          63.1281   84.8402   10.2731 C.3     1  UNL1        0.0000
     19 C          62.9053   85.2998    8.2142 C.3     1  UNL1        0.0000
@<TRIPOS>BOND
     1    16    17    1
     2    17    18    1
     3    17    19    1
     4    17    15    1
     5     1    15    1
     6     1     2    1
     7     2     3    1
     8     3     8    1
     9     8     9   ar
    10     9    10   ar
    11    10    11    2
    12    10    12   ar
    13    12    13   ar
    14     3     4    1
    15     4     5    1
    16     5     6    1
    17     6     1    1
    18    13     8   ar
    19    12    14    1
    20     6     7    1
@<TRIPOS>MOLECULE
*****
 19 20 0 0 0
SMALL
GASTEIGER

@<TRIPOS>ATOM
      1 C          61.8757   86.5132   10.4698 C.3     1  UNL1        0.0544
      2 C          62.1093   85.5540   11.5991 C.3     1  UNL1        0.0234
      3 C          62.8768   84.2874   11.3608 C.3     1  UNL1        0.0629
      4 C          63.4106   83.9800    9.9931 C.3     1  UNL1        0.0247
      5 C          63.1770   84.9392    8.8638 C.3     1  UNL1        0.0690
      6 N          62.4095   86.2058    9.1022 N.3     1  UNL1       -0.2985
      7 H          61.6087   86.1881    8.4707 H       1  UNL1        0.1232
      8 C          63.1104   83.3282   12.4902 C.ar    1  UNL1        0.1547
      9 C          62.8098   81.8587   12.4754 C.ar    1  UNL1        0.0986
     10 C          63.1993   81.2925   13.8086 C.ar    1  UNL1        0.2884
     11 O          63.0701   79.8585   14.2293 O.2     1  UNL1       -0.2645
     12 N          63.7406   82.4121   14.6475 N.ar    1  UNL1       -0.1839
     13 O          63.6857   83.6702   13.8326 O.2     1  UNL1       -0.3802
     14 H          64.0735   82.3347   15.5708 H       1  UNL1        0.2107
     15 C          61.1082   87.7797   10.7082 C.3     1  UNL1        0.0157
     16 C          60.8068   89.3435    9.3069 C.3     1  UNL1        0.0000
     17 C          61.7535   89.1082   10.4464 C.3     1  UNL1        0.0013
     18 C          62.7001   88.8730   11.5859 C.3     1  UNL1        0.0000
     19 C          62.3988   90.4368   10.1846 C.3     1  UNL1        0.0000
@<TRIPOS>BOND
     1    16    17    1
     2    17    18    1
     3    17    19    1
     4    17    15    1
     5     1    15    1
     6     1     2    1
     7     2     3    1
     8     3     8    1
     9     8     9   ar
    10     9    10   ar
    11    10    11    2
    12    10    12   ar
    13    12    13   ar
    14     3     4    1
    15     4     5    1
    16     5     6    1
    17     6     1    1
    18    13     8   ar
    19    12    14    1
    20     6     7    1
@<TRIPOS>MOLECULE
*****
 19 20 0 0 0
SMALL
GASTEIGER

@<TRIPOS>ATOM
      1 C          62.7611   87.0598   11.7731 C.3     1  UNL1        0.0544
      2 C          62.5117   85.5989   12.0042 C.3     1  UNL1        0.0234
      3 C          63.0269   84.9376   13.2481 C.3     1  UNL1        0.0629
      4 C          63.7915   85.7373   14.2609 C.3     1  UNL1        0.0247
      5 C          64.0409   87.1982   14.0298 C.3     1  UNL1        0.0690
      6 N          63.5257   87.8595   12.7859 N.3     1  UNL1       -0.2985
      7 H          64.3350   88.2496   12.3030 H       1  UNL1        0.1232
      8 C          62.7774   83.4766   13.4792 C.ar    1  UNL1        0.1547
      9 C          62.8772   82.3913   12.4486 C.ar    1  UNL1        0.0986
     10 C          62.5459   81.0885   13.1139 C.ar    1  UNL1        0.2884
     11 O          62.5231   79.7419   12.4533 O.2     1  UNL1       -0.2645
     12 N          62.2413   81.3685   14.5557 N.ar    1  UNL1       -0.1839
     13 O          62.3844   82.8445   14.7815 O.2     1  UNL1       -0.3802
     14 H          61.9913   80.7008   15.2347 H       1  UNL1        0.2107
     15 C          62.2459   87.7211   10.5292 C.3     1  UNL1        0.0157
     16 C          62.4661   86.3201    8.9516 C.3     1  UNL1        0.0000
     17 C          61.3023   86.9854    9.6245 C.3     1  UNL1        0.0013
     18 C          60.1385   87.6507   10.2975 C.3     1  UNL1        0.0000
     19 C          60.3586   86.2498    8.7199 C.3     1  UNL1        0.0000
@<TRIPOS>BOND
     1    16    17    1
     2    17    18    1
     3    17    19    1
     4    17    15    1
     5     1    15    1
     6     1     2    1
     7     2     3    1
     8     3     8    1
     9     8     9   ar
    10     9    10   ar
    11    10    11    2
    12    10    12   ar
    13    12    13   ar
    14     3     4    1
    15     4     5    1
    16     5     6    1
    17     6     1    1
    18    13     8   ar
    19    12    14    1
    20     6     7    1
@<TRIPOS>MOLECULE
*****
 19 20 0 0 0
SMALL
GASTEIGER

@<TRIPOS>ATOM
      1 C          61.4796   87.5881   10.8228 C.3     1  UNL1        0.0544
      2 C          62.5521   88.2160   11.6627 C.3     1  UNL1        0.0234
      3 C          62.6896   89.7089   11.7105 C.3     1  UNL1        0.0629
      4 C          61.7545   90.5739   10.9184 C.3     1  UNL1        0.0247
      5 C          60.6820   89.9460   10.0786 C.3     1  UNL1        0.0690
      6 N          60.5446   88.4531   10.0308 N.3     1  UNL1       -0.2985
      7 H          60.6466   88.1791    9.0536 H       1  UNL1        0.1232
      8 C          63.7622   90.3368   12.5504 C.ar    1  UNL1        0.1547
      9 C          64.4421   91.6458   12.2782 C.ar    1  UNL1        0.0986
     10 C          65.4433   91.8839   13.3695 C.ar    1  UNL1        0.2884
     11 O          66.3470   93.0748   13.4925 O.2     1  UNL1       -0.2645
     12 N          65.3821   90.7220   14.3163 N.ar    1  UNL1       -0.1839
     13 O          64.3431   89.7659   13.8100 O.2     1  UNL1       -0.3802
     14 H          65.9279   90.6072   15.1275 H       1  UNL1        0.2107
     15 C          61.3421   86.0952   10.7751 C.3     1  UNL1        0.0157
     16 C          62.5960   84.5467   11.5030 C.3     1  UNL1        0.0000
     17 C          62.4424   85.2590   10.1919 C.3     1  UNL1        0.0013
     18 C          62.2888   85.9712    8.8808 C.3     1  UNL1        0.0000
     19 C          63.5427   84.4227    9.6086 C.3     1  UNL1        0.0000
@<TRIPOS>BOND
     1    16    17    1
     2    17    18    1
     3    17    19    1
     4    17    15    1
     5     1    15    1
     6     1     2    1
     7     2     3    1
     8     3     8    1
     9     8     9   ar
    10     9    10   ar
    11    10    11    2
    12    10    12   ar
    13    12    13   ar
    14     3     4    1
    15     4     5    1
    16     5     6    1
    17     6     1    1
    18    13     8   ar
    19    12    14    1
    20     6     7    1
@<TRIPOS>MOLECULE
*****
 19 20 0 0 0
SMALL
GASTEIGER

@<TRIPOS>ATOM
      1 C          63.2870   84.7330   12.5363 C.3     1  UNL1        0.0544
      2 C          63.2069   86.1688   12.9629 C.3     1  UNL1        0.0234
      3 C          64.0164   86.6508   14.1300 C.3     1  UNL1        0.0629
      4 C          64.9062   85.6969   14.8706 C.3     1  UNL1        0.0247
      5 C          64.9863   84.2611   14.4441 C.3     1  UNL1        0.0690
      6 N          64.1767   83.7792   13.2769 N.3     1  UNL1       -0.2985
      7 H          63.5797   83.0279   13.6228 H       1  UNL1        0.1232
      8 C          63.9363   88.0866   14.5566 C.ar    1  UNL1        0.1547
      9 C          64.3262   89.2753   13.7290 C.ar    1  UNL1        0.0986
     10 C          64.0831   90.5092   14.5466 C.ar    1  UNL1        0.2884
     11 O          64.3358   91.9213   14.1082 O.2     1  UNL1       -0.2645
     12 N          63.5428   90.0831   15.8795 N.ar    1  UNL1       -0.1839
     13 O          63.4522   88.5859   15.8857 O.2     1  UNL1       -0.3802
     14 H          63.2919   90.6811   16.6202 H       1  UNL1        0.2107
     15 C          62.4774   84.2511   11.3691 C.3     1  UNL1        0.0157
     16 C          63.8693   83.7471    9.8498 C.3     1  UNL1        0.0000
     17 C          62.7728   84.7610    9.9898 C.3     1  UNL1        0.0013
     18 C          61.6763   85.7749   10.1297 C.3     1  UNL1        0.0000
     19 C          63.0682   85.2710    8.6104 C.3     1  UNL1        0.0000
@<TRIPOS>BOND
     1    16    17    1
     2    17    18    1
     3    17    19    1
     4    17    15    1
     5     1    15    1
     6     1     2    1
     7     2     3    1
     8     3     8    1
     9     8     9   ar
    10     9    10   ar
    11    10    11    2
    12    10    12   ar
    13    12    13   ar
    14     3     4    1
    15     4     5    1
    16     5     6    1
    17     6     1    1
    18    13     8   ar
    19    12    14    1
    20     6     7    1
