@<TRIPOS>MOLECULE
*****
 22 22 0 0 0
SMALL
GASTEIGER

@<TRIPOS>ATOM
      1 C          64.2398   87.6497   15.0507 C.3     1  UNL1        0.0096
      2 C          64.1498   88.4897   13.8112 C.3     1  UNL1        0.0005
      3 C          64.1709   89.9858   13.9159 C.3     1  UNL1        0.0005
      4 C          65.3869   90.6832   14.4497 C.3     1  UNL1        0.0096
      5 C          66.0238   91.7892   13.6615 C.3     1  UNL1        0.0871
      6 O          67.6397   93.2952   15.0293 O.2     1  UNL1       -0.2730
      7 C          67.4172   92.2375   13.9892 C.2     1  UNL1        0.2443
      8 N          68.5881   91.6282   13.2767 N.am    1  UNL1       -0.1970
      9 O          69.9816   92.0765   13.6044 O.3     1  UNL1       -0.2952
     10 H          68.4421   90.9340   12.5941 H       1  UNL1        0.1822
     11 H          69.9481   92.7599   14.2920 H       1  UNL1        0.2414
     12 C          64.8303   86.2725   14.9822 C.3     1  UNL1        0.0854
     13 C          64.1513   85.2045   14.1770 C.2     1  UNL1        0.2261
     14 O          62.6588   85.2133   14.0268 O.2     1  UNL1       -0.2748
     15 N          64.9646   84.1277   13.5221 N.am    1  UNL1       -0.2839
     16 H          65.9441   84.1220   13.6207 H       1  UNL1        0.1549
     17 C          64.2855   83.0597   12.7170 C.ar    1  UNL1        0.0503
     18 C          64.3935   83.0656   11.2209 C.ar    1  UNL1        0.0147
     19 C          63.7144   81.9976   10.4158 C.ar    1  UNL1        0.0013
     20 C          62.9274   80.9237   11.1067 C.ar    1  UNL1        0.0001
     21 C          62.8195   80.9179   12.6028 C.ar    1  UNL1        0.0013
     22 C          63.4985   81.9859   13.4079 C.ar    1  UNL1        0.0147
@<TRIPOS>BOND
     1     6     7    2
     2     7     5    1
     3     5     4    1
     4     4     3    1
     5     3     2    1
     6     2     1    1
     7     1    12    1
     8    12    13    1
     9    13    14    2
    10    13    15   am
    11    15    17    1
    12    17    18   ar
    13    18    19   ar
    14    19    20   ar
    15    20    21   ar
    16    21    22   ar
    17     7     8   am
    18     8     9    1
    19    22    17   ar
    20    15    16    1
    21     8    10    1
    22     9    11    1
@<TRIPOS>MOLECULE
*****
 22 22 0 0 0
SMALL
GASTEIGER

@<TRIPOS>ATOM
      1 C          63.4162   82.8038   11.5929 C.3     1  UNL1        0.0096
      2 C          64.2171   83.0946   10.3583 C.3     1  UNL1        0.0005
      3 C          63.6728   84.0219    9.3124 C.3     1  UNL1        0.0005
      4 C          62.6445   85.0493    9.6827 C.3     1  UNL1        0.0096
      5 C          62.1164   85.9910    8.6414 C.3     1  UNL1        0.0871
      6 O          60.3521   87.4720    9.8431 O.2     1  UNL1       -0.2730
      7 C          60.7149   86.5154    8.7461 C.2     1  UNL1        0.2443
      8 N          59.6763   86.0833    7.7539 N.am    1  UNL1       -0.1970
      9 O          58.2749   86.6077    7.8587 O.3     1  UNL1       -0.2952
     10 H          59.9145   85.4554    7.0340 H       1  UNL1        0.1822
     11 H          58.2107   87.2095    8.6166 H       1  UNL1        0.2414
     12 C          63.9617   83.1646   12.9429 C.3     1  UNL1        0.0854
     13 C          63.5797   84.4664   13.5827 C.2     1  UNL1        0.2261
     14 O          62.4112   85.2462   13.0567 O.2     1  UNL1       -0.2748
     15 N          64.3661   84.9884   14.7485 N.am    1  UNL1       -0.2839
     16 H          65.1330   84.4766   15.0937 H       1  UNL1        0.1549
     17 C          63.9841   86.2902   15.3883 C.ar    1  UNL1        0.0503
     18 C          63.2816   86.2969   16.7136 C.ar    1  UNL1        0.0147
     19 C          62.8996   87.5987   17.3534 C.ar    1  UNL1        0.0013
     20 C          63.2201   88.8938   16.6679 C.ar    1  UNL1        0.0001
     21 C          63.9225   88.8871   15.3426 C.ar    1  UNL1        0.0013
     22 C          64.3046   87.5853   14.7028 C.ar    1  UNL1        0.0147
@<TRIPOS>BOND
     1     6     7    2
     2     7     5    1
     3     5     4    1
     4     4     3    1
     5     3     2    1
     6     2     1    1
     7     1    12    1
     8    12    13    1
     9    13    14    2
    10    13    15   am
    11    15    17    1
    12    17    18   ar
    13    18    19   ar
    14    19    20   ar
    15    20    21   ar
    16    21    22   ar
    17     7     8   am
    18     8     9    1
    19    22    17   ar
    20    15    16    1
    21     8    10    1
    22     9    11    1
@<TRIPOS>MOLECULE
*****
 22 22 0 0 0
SMALL
GASTEIGER

@<TRIPOS>ATOM
      1 C          63.7126   82.4369   10.5023 C.3     1  UNL1        0.0096
      2 C          63.0147   81.2784   11.1508 C.3     1  UNL1        0.0005
      3 C          63.2893   80.9461   12.5875 C.3     1  UNL1        0.0005
      4 C          62.1495   80.7232   13.5369 C.3     1  UNL1        0.0096
      5 C          61.6646   81.8474   14.4036 C.3     1  UNL1        0.0871
      6 O          63.9672   82.6774   15.2749 O.2     1  UNL1       -0.2730
      7 C          62.5899   82.9731   14.7593 C.2     1  UNL1        0.2443
      8 N          62.1381   84.3944   14.5993 N.am    1  UNL1       -0.1970
      9 O          63.0634   85.5201   14.9550 O.3     1  UNL1       -0.2952
     10 H          61.2342   84.5885   14.2609 H       1  UNL1        0.1822
     11 H          63.9067   85.1584   15.2695 H       1  UNL1        0.2414
     12 C          63.8153   83.7490   11.2220 C.3     1  UNL1        0.0854
     13 C          62.8522   84.8549   10.9064 C.2     1  UNL1        0.2261
     14 O          62.0386   85.4766   12.0026 O.2     1  UNL1       -0.2748
     15 N          62.7028   85.3391    9.4946 N.am    1  UNL1       -0.2839
     16 H          63.2367   84.9310    8.7751 H       1  UNL1        0.1549
     17 C          61.7397   86.4449    9.1789 C.ar    1  UNL1        0.0503
     18 C          60.5191   86.1637    8.3537 C.ar    1  UNL1        0.0147
     19 C          59.5561   87.2696    8.0381 C.ar    1  UNL1        0.0013
     20 C          59.8136   88.6566    8.5476 C.ar    1  UNL1        0.0001
     21 C          61.0342   88.9378    9.3728 C.ar    1  UNL1        0.0013
     22 C          61.9973   87.8320    9.6885 C.ar    1  UNL1        0.0147
@<TRIPOS>BOND
     1     6     7    2
     2     7     5    1
     3     5     4    1
     4     4     3    1
     5     3     2    1
     6     2     1    1
     7     1    12    1
     8    12    13    1
     9    13    14    2
    10    13    15   am
    11    15    17    1
    12    17    18   ar
    13    18    19   ar
    14    19    20   ar
    15    20    21   ar
    16    21    22   ar
    17     7     8   am
    18     8     9    1
    19    22    17   ar
    20    15    16    1
    21     8    10    1
    22     9    11    1
@<TRIPOS>MOLECULE
*****
 22 22 0 0 0
SMALL
GASTEIGER

@<TRIPOS>ATOM
      1 C          64.6143   90.7824   14.6151 C.3     1  UNL1        0.0096
      2 C          64.3316   89.4294   14.0325 C.3     1  UNL1        0.0005
      3 C          64.2011   88.2373   14.9334 C.3     1  UNL1        0.0005
      4 C          64.2872   86.8528   14.3626 C.3     1  UNL1        0.0096
      5 C          64.4699   85.6757   15.2742 C.3     1  UNL1        0.0871
      6 O          61.9941   85.0156   15.7039 O.2     1  UNL1       -0.2730
      7 C          63.4027   84.6257   15.3664 C.2     1  UNL1        0.2443
      8 N          63.7440   83.1858   15.1211 N.am    1  UNL1       -0.1970
      9 O          62.6768   82.1358   15.2133 O.3     1  UNL1       -0.2952
     10 H          64.6685   82.9299   14.8996 H       1  UNL1        0.1822
     11 H          61.8308   82.5535   15.4383 H       1  UNL1        0.2414
     12 C          66.0301   91.2579   14.7551 C.3     1  UNL1        0.0854
     13 C          66.6767   92.0265   13.6410 C.2     1  UNL1        0.2261
     14 O          68.1092   92.4557   13.7587 O.2     1  UNL1       -0.2748
     15 N          65.8908   92.3660   12.4093 N.am    1  UNL1       -0.2839
     16 H          64.9507   92.0843   12.3321 H       1  UNL1        0.1549
     17 C          66.5374   93.1346   11.2953 C.ar    1  UNL1        0.0503
     18 C          66.3468   94.6193   11.1991 C.ar    1  UNL1        0.0147
     19 C          66.9934   95.3879   10.0851 C.ar    1  UNL1        0.0013
     20 C          67.8306   94.6719    9.0671 C.ar    1  UNL1        0.0001
     21 C          68.0213   93.1872    9.1633 C.ar    1  UNL1        0.0013
     22 C          67.3747   92.4186   10.2773 C.ar    1  UNL1        0.0147
@<TRIPOS>BOND
     1     6     7    2
     2     7     5    1
     3     5     4    1
     4     4     3    1
     5     3     2    1
     6     2     1    1
     7     1    12    1
     8    12    13    1
     9    13    14    2
    10    13    15   am
    11    15    17    1
    12    17    18   ar
    13    18    19   ar
    14    19    20   ar
    15    20    21   ar
    16    21    22   ar
    17     7     8   am
    18     8     9    1
    19    22    17   ar
    20    15    16    1
    21     8    10    1
    22     9    11    1
@<TRIPOS>MOLECULE
*****
 22 22 0 0 0
SMALL
GASTEIGER

@<TRIPOS>ATOM
      1 C          63.8961   88.7234   13.5264 C.3     1  UNL1        0.0096
      2 C          64.5939   89.3201   14.7125 C.3     1  UNL1        0.0005
      3 C          64.6099   90.8078   14.9032 C.3     1  UNL1        0.0005
      4 C          65.6592   91.6394   14.2269 C.3     1  UNL1        0.0096
      5 C          66.4510   92.6374   15.0190 C.3     1  UNL1        0.0871
      6 O          68.7549   93.5728   15.7718 O.2     1  UNL1       -0.2730
      7 C          67.9378   92.7258   14.8418 C.2     1  UNL1        0.2443
      8 N          68.6076   91.9671   13.7346 N.am    1  UNL1       -0.1970
      9 O          70.0944   92.0555   13.5574 O.3     1  UNL1       -0.2952
     10 H          68.0713   91.4112   13.1242 H       1  UNL1        0.1822
     11 H          70.4668   92.6398   14.2363 H       1  UNL1        0.2414
     12 C          63.1398   89.6065   12.5786 C.3     1  UNL1        0.0854
     13 C          62.5756   89.0367   11.3109 C.2     1  UNL1        0.2261
     14 O          62.6393   89.8293   10.0389 O.2     1  UNL1       -0.2748
     15 N          61.9479   87.6745   11.3151 N.am    1  UNL1       -0.2839
     16 H          61.9061   87.1543   12.1499 H       1  UNL1        0.1549
     17 C          61.3837   87.1047   10.0474 C.ar    1  UNL1        0.0503
     18 C          62.2146   86.1836    9.2042 C.ar    1  UNL1        0.0147
     19 C          61.6505   85.6138    7.9365 C.ar    1  UNL1        0.0013
     20 C          60.2554   85.9651    7.5120 C.ar    1  UNL1        0.0001
     21 C          59.4245   86.8863    8.3552 C.ar    1  UNL1        0.0013
     22 C          59.9886   87.4560    9.6229 C.ar    1  UNL1        0.0147
@<TRIPOS>BOND
     1     6     7    2
     2     7     5    1
     3     5     4    1
     4     4     3    1
     5     3     2    1
     6     2     1    1
     7     1    12    1
     8    12    13    1
     9    13    14    2
    10    13    15   am
    11    15    17    1
    12    17    18   ar
    13    18    19   ar
    14    19    20   ar
    15    20    21   ar
    16    21    22   ar
    17     7     8   am
    18     8     9    1
    19    22    17   ar
    20    15    16    1
    21     8    10    1
    22     9    11    1
@<TRIPOS>MOLECULE
*****
 22 22 0 0 0
SMALL
GASTEIGER

@<TRIPOS>ATOM
      1 C          63.9728   88.2852   14.9313 C.3     1  UNL1        0.0096
      2 C          64.5251   89.5094   14.2632 C.3     1  UNL1        0.0005
      3 C          63.5976   90.4881   13.6060 C.3     1  UNL1        0.0005
      4 C          63.5543   90.5921   12.1102 C.3     1  UNL1        0.0096
      5 C          62.2346   90.6764   11.4022 C.3     1  UNL1        0.0871
      6 O          59.7837   89.8724   11.7139 O.2     1  UNL1       -0.2730
      7 C          61.2401   89.5612   11.5341 C.2     1  UNL1        0.2443
      8 N          61.7019   88.1349   11.4864 N.am    1  UNL1       -0.1970
      9 O          60.7075   87.0198   11.6184 O.3     1  UNL1       -0.2952
     10 H          62.6578   87.9307   11.3684 H       1  UNL1        0.1822
     11 H          59.8179   87.3910   11.7269 H       1  UNL1        0.2414
     12 C          64.7062   86.9805   14.8307 C.3     1  UNL1        0.0854
     13 C          64.0345   85.7880   14.2170 C.2     1  UNL1        0.2261
     14 O          63.1012   85.9676   13.0564 O.2     1  UNL1       -0.2748
     15 N          64.2961   84.4159   14.7636 N.am    1  UNL1       -0.2839
     16 H          64.9087   84.2981   15.5253 H       1  UNL1        0.1549
     17 C          63.6244   83.2234   14.1499 C.ar    1  UNL1        0.0503
     18 C          64.2002   82.5895   12.9184 C.ar    1  UNL1        0.0147
     19 C          63.5285   81.3970   12.3046 C.ar    1  UNL1        0.0013
     20 C          62.2810   80.8384   12.9223 C.ar    1  UNL1        0.0001
     21 C          61.7052   81.4723   14.1538 C.ar    1  UNL1        0.0013
     22 C          62.3769   82.6648   14.7676 C.ar    1  UNL1        0.0147
@<TRIPOS>BOND
     1     6     7    2
     2     7     5    1
     3     5     4    1
     4     4     3    1
     5     3     2    1
     6     2     1    1
     7     1    12    1
     8    12    13    1
     9    13    14    2
    10    13    15   am
    11    15    17    1
    12    17    18   ar
    13    18    19   ar
    14    19    20   ar
    15    20    21   ar
    16    21    22   ar
    17     7     8   am
    18     8     9    1
    19    22    17   ar
    20    15    16    1
    21     8    10    1
    22     9    11    1
@<TRIPOS>MOLECULE
*****
 22 22 0 0 0
SMALL
GASTEIGER

@<TRIPOS>ATOM
      1 C          63.9575   89.7230   13.4782 C.3     1  UNL1        0.0096
      2 C          64.6881   90.5193   14.5184 C.3     1  UNL1        0.0005
      3 C          65.9771   91.2032   14.1710 C.3     1  UNL1        0.0005
      4 C          65.9578   92.5175   13.4484 C.3     1  UNL1        0.0096
      5 C          65.9307   92.5486   11.9489 C.3     1  UNL1        0.0871
      6 O          66.9708   94.7385   11.0147 O.2     1  UNL1       -0.2730
      7 C          67.0204   93.2500   11.1935 C.2     1  UNL1        0.2443
      8 N          68.1596   92.4628   10.6168 N.am    1  UNL1       -0.1970
      9 O          69.2493   93.1642    9.8614 O.3     1  UNL1       -0.2952
     10 H          68.1921   91.4859   10.7341 H       1  UNL1        0.1822
     11 H          69.0657   94.1164    9.8386 H       1  UNL1        0.2414
     12 C          63.0648   90.4169   12.4925 C.3     1  UNL1        0.0854
     13 C          62.0788   89.6245   11.6863 C.2     1  UNL1        0.2261
     14 O          60.7357   89.2884   12.2638 O.2     1  UNL1       -0.2748
     15 N          62.4357   89.1682   10.3027 N.am    1  UNL1       -0.2839
     16 H          63.3172   89.3888    9.9237 H       1  UNL1        0.1549
     17 C          61.4497   88.3758    9.4966 C.ar    1  UNL1        0.0503
     18 C          60.3525   89.0780    8.7529 C.ar    1  UNL1        0.0147
     19 C          59.3665   88.2856    7.9467 C.ar    1  UNL1        0.0013
     20 C          59.4777   86.7910    7.8842 C.ar    1  UNL1        0.0001
     21 C          60.5749   86.0889    8.6279 C.ar    1  UNL1        0.0013
     22 C          61.5609   86.8813    9.4341 C.ar    1  UNL1        0.0147
@<TRIPOS>BOND
     1     6     7    2
     2     7     5    1
     3     5     4    1
     4     4     3    1
     5     3     2    1
     6     2     1    1
     7     1    12    1
     8    12    13    1
     9    13    14    2
    10    13    15   am
    11    15    17    1
    12    17    18   ar
    13    18    19   ar
    14    19    20   ar
    15    20    21   ar
    16    21    22   ar
    17     7     8   am
    18     8     9    1
    19    22    17   ar
    20    15    16    1
    21     8    10    1
    22     9    11    1
@<TRIPOS>MOLECULE
*****
 22 22 0 0 0
SMALL
GASTEIGER

@<TRIPOS>ATOM
      1 C          63.7645   89.4807   12.9793 C.3     1  UNL1        0.0096
      2 C          64.1962   89.4949   14.4158 C.3     1  UNL1        0.0005
      3 C          64.8933   90.6984   14.9776 C.3     1  UNL1        0.0005
      4 C          65.7201   91.5724   14.0817 C.3     1  UNL1        0.0096
      5 C          66.4829   92.7284   14.6578 C.3     1  UNL1        0.0871
      6 O          68.7512   93.4532   15.6968 O.2     1  UNL1       -0.2730
      7 C          67.9827   92.7231   14.6355 C.2     1  UNL1        0.2443
      8 N          68.7141   91.9878   13.5518 N.am    1  UNL1       -0.1970
      9 O          70.2139   91.9825   13.5294 O.3     1  UNL1       -0.2952
     10 H          68.2097   91.5086   12.8552 H       1  UNL1        0.1822
     11 H          70.5503   92.4971   14.2796 H       1  UNL1        0.2414
     12 C          62.4607   90.1070   12.5818 C.3     1  UNL1        0.0854
     13 C          61.5453   89.3940   11.6311 C.2     1  UNL1        0.2261
     14 O          60.1096   89.1659   12.0013 O.2     1  UNL1       -0.2748
     15 N          62.0654   88.9092   10.3104 N.am    1  UNL1       -0.2839
     16 H          63.0077   89.0589   10.0675 H       1  UNL1        0.1549
     17 C          61.1500   88.1963    9.3598 C.ar    1  UNL1        0.0503
     18 C          60.0670   88.9542    8.6509 C.ar    1  UNL1        0.0147
     19 C          59.1516   88.2413    7.7002 C.ar    1  UNL1        0.0013
     20 C          59.3192   86.7704    7.4585 C.ar    1  UNL1        0.0001
     21 C          60.4022   86.0125    8.1674 C.ar    1  UNL1        0.0013
     22 C          61.3176   86.7254    9.1181 C.ar    1  UNL1        0.0147
@<TRIPOS>BOND
     1     6     7    2
     2     7     5    1
     3     5     4    1
     4     4     3    1
     5     3     2    1
     6     2     1    1
     7     1    12    1
     8    12    13    1
     9    13    14    2
    10    13    15   am
    11    15    17    1
    12    17    18   ar
    13    18    19   ar
    14    19    20   ar
    15    20    21   ar
    16    21    22   ar
    17     7     8   am
    18     8     9    1
    19    22    17   ar
    20    15    16    1
    21     8    10    1
    22     9    11    1
@<TRIPOS>MOLECULE
*****
 22 22 0 0 0
SMALL
GASTEIGER

@<TRIPOS>ATOM
      1 C          63.8171   89.5439   13.0011 C.3     1  UNL1        0.0096
      2 C          64.3409   89.6286   14.4041 C.3     1  UNL1        0.0005
      3 C          65.5602   90.4502   14.7011 C.3     1  UNL1        0.0005
      4 C          65.4219   91.7763   15.3884 C.3     1  UNL1        0.0096
      5 C          66.4436   92.8503   15.1584 C.3     1  UNL1        0.0871
      6 O          68.7367   92.3047   16.2511 O.2     1  UNL1       -0.2730
      7 C          67.8934   92.4900   15.0244 C.2     1  UNL1        0.2443
      8 N          68.5001   92.3148   13.6638 N.am    1  UNL1       -0.1970
      9 O          69.9500   91.9544   13.5298 O.3     1  UNL1       -0.2952
     10 H          67.9466   92.4364   12.8588 H       1  UNL1        0.1822
     11 H          70.3458   91.8732   14.4116 H       1  UNL1        0.2414
     12 C          63.2317   90.7590   12.3444 C.3     1  UNL1        0.0854
     13 C          64.0575   91.5646   11.3858 C.2     1  UNL1        0.2261
     14 O          63.5814   91.7748    9.9789 O.2     1  UNL1       -0.2748
     15 N          65.3592   92.1600   11.8339 N.am    1  UNL1       -0.2839
     16 H          65.6717   92.0221   12.7573 H       1  UNL1        0.1549
     17 C          66.1850   92.9657   10.8752 C.ar    1  UNL1        0.0503
     18 C          65.8347   94.3987   10.6042 C.ar    1  UNL1        0.0147
     19 C          66.6604   95.2044    9.6455 C.ar    1  UNL1        0.0013
     20 C          67.8365   94.5769    8.9578 C.ar    1  UNL1        0.0001
     21 C          68.1868   93.1438    9.2288 C.ar    1  UNL1        0.0013
     22 C          67.3611   92.3382   10.1874 C.ar    1  UNL1        0.0147
@<TRIPOS>BOND
     1     6     7    2
     2     7     5    1
     3     5     4    1
     4     4     3    1
     5     3     2    1
     6     2     1    1
     7     1    12    1
     8    12    13    1
     9    13    14    2
    10    13    15   am
    11    15    17    1
    12    17    18   ar
    13    18    19   ar
    14    19    20   ar
    15    20    21   ar
    16    21    22   ar
    17     7     8   am
    18     8     9    1
    19    22    17   ar
    20    15    16    1
    21     8    10    1
    22     9    11    1
