@<TRIPOS>MOLECULE
*****
 44 48 0 0 0
SMALL
GASTEIGER

@<TRIPOS>ATOM
      1 C          60.7603   86.9068    9.2329 C.3     1  UNL1        0.0964
      2 C          59.9137   86.0820    8.3094 C.3     1  UNL1        0.0780
      3 N          58.9158   86.7493    7.4101 N.3     1  UNL1       -0.2970
      4 C          58.7645   88.2414    7.4344 C.3     1  UNL1        0.0689
      5 C          59.6111   89.0662    8.3579 C.3     1  UNL1        0.0220
      6 C          60.6090   88.3989    9.2572 C.3     1  UNL1        0.0337
      7 H          58.0030   86.3570    7.6408 H       1  UNL1        0.1233
      8 C          61.4557   89.2237   10.1807 C.ar    1  UNL1       -0.0217
      9 C          61.1175   89.3008   11.6400 C.ar    1  UNL1       -0.0012
     10 C          61.9641   90.1256   12.5636 C.ar    1  UNL1        0.0366
     11 C          63.1489   90.8733   12.0278 C.ar    1  UNL1        0.1387
     12 C          63.4872   90.7962   10.5685 C.ar    1  UNL1        0.0366
     13 C          62.6405   89.9714    9.6450 C.ar    1  UNL1       -0.0012
     14 O          63.9956   91.6981   12.9514 O.3     1  UNL1       -0.4714
     15 C          65.4365   91.9526   12.6213 C.3     1  UNL1        0.2525
     16 C          66.0266   93.3143   12.8394 C.3     1  UNL1        0.2525
     17 O          67.1922   93.7679   12.0114 O.3     1  UNL1       -0.4697
     18 C          66.9585   94.5399   10.7467 C.ar    1  UNL1        0.1596
     19 C          66.3759   95.9207   10.8076 C.ar    1  UNL1        0.0921
     20 CL         66.0271   96.5297   12.1333 Cl      1  UNL1       -0.0791
     21 C          66.1421   96.6927    9.5429 C.ar    1  UNL1        0.0103
     22 C          66.4909   96.0837    8.2172 C.ar    1  UNL1       -0.0200
     23 C          66.2572   96.8557    6.9525 C.3     1  UNL1        0.0311
     24 C          67.0736   94.7028    8.1562 C.ar    1  UNL1        0.0103
     25 C          67.3073   93.9309    9.4209 C.ar    1  UNL1        0.0921
     26 CL         67.8899   92.5500    9.3599 Cl      1  UNL1       -0.0791
     27 N          62.7196   85.2343    9.5705 N.am    1  UNL1       -0.2770
     28 C          61.7583   86.2394   10.1322 C.2     1  UNL1        0.2270
     29 O          61.7949   86.5771   11.5933 O.2     1  UNL1       -0.2748
     30 C          62.6831   84.8965    8.1095 C.3     1  UNL1        0.0758
     31 C          61.9903   84.2630    6.9397 C.3     1  UNL1        0.0215
     32 C          63.3125   84.9451    6.7489 C.3     1  UNL1        0.0215
     33 C          63.7176   84.5669   10.4698 C.3     1  UNL1        0.1209
     34 C          62.5913   83.6519   14.1637 C.ar    1  UNL1       -0.0199
     35 C          62.3089   82.1858   14.0189 C.ar    1  UNL1       -0.0033
     36 C          62.4961   81.5134   12.6912 C.ar    1  UNL1        0.0108
     37 C          62.9656   82.3071   11.5082 C.ar    1  UNL1        0.0553
     38 CL         63.1528   81.6348   10.1804 Cl      1  UNL1       -0.0825
     39 C          63.2480   83.7732   11.6529 C.ar    1  UNL1        0.0079
     40 C          63.0609   84.4456   12.9807 C.ar    1  UNL1       -0.0060
     41 C          62.4041   84.3242   15.4914 C.3     1  UNL1        0.0584
     42 C          63.4460   85.2731   16.0051 C.3     1  UNL1        0.1469
     43 C          62.5431   86.5752   18.0640 C.3     1  UNL1        0.1741
     44 O          63.0332   86.5648   16.6464 O.3     1  UNL1       -0.3507
@<TRIPOS>BOND
     1    43    44    1
     2    44    42    1
     3    42    41    1
     4    41    34    1
     5    34    35   ar
     6    35    36   ar
     7    36    37   ar
     8    37    38    1
     9    37    39   ar
    10    39    33    1
    11    33    27    1
    12    27    28   am
    13    28    29    2
    14     1    28    1
    15     1     2    1
    16     2     3    1
    17     3     4    1
    18     4     5    1
    19     5     6    1
    20     6     8    1
    21     8     9   ar
    22     9    10   ar
    23    10    11   ar
    24    11    14    1
    25    14    15    1
    26    15    16    1
    27    16    17    1
    28    17    18    1
    29    18    19   ar
    30    19    20    1
    31    19    21   ar
    32    21    22   ar
    33    22    23    1
    34    22    24   ar
    35    24    25   ar
    36    25    26    1
    37    11    12   ar
    38    12    13   ar
    39    27    30    1
    40    30    31    1
    41    31    32    1
    42    39    40   ar
    43    40    34   ar
    44     6     1    1
    45    13     8   ar
    46    32    30    1
    47    25    18   ar
    48     3     7    1
@<TRIPOS>MOLECULE
*****
 44 48 0 0 0
SMALL
GASTEIGER

@<TRIPOS>ATOM
      1 C          60.3639   87.6366    9.6225 C.3     1  UNL1        0.0964
      2 C          59.5130   86.9918    8.5689 C.3     1  UNL1        0.0780
      3 N          59.1947   87.7332    7.3044 N.3     1  UNL1       -0.2970
      4 C          59.7273   89.1195    7.0936 C.3     1  UNL1        0.0689
      5 C          60.5781   89.7643    8.1472 C.3     1  UNL1        0.0220
      6 C          60.8965   89.0229    9.4117 C.3     1  UNL1        0.0337
      7 H          58.1782   87.7965    7.2482 H       1  UNL1        0.1233
      8 C          61.7474   89.6678   10.4653 C.ar    1  UNL1       -0.0217
      9 C          62.9909   90.4100   10.0745 C.ar    1  UNL1       -0.0012
     10 C          63.8418   91.0549   11.1281 C.ar    1  UNL1        0.0366
     11 C          63.4491   90.9576   12.5725 C.ar    1  UNL1        0.1387
     12 C          62.2056   90.2155   12.9633 C.ar    1  UNL1        0.0366
     13 C          61.3547   89.5706   11.9097 C.ar    1  UNL1       -0.0012
     14 O          64.3000   91.6025   13.6261 O.3     1  UNL1       -0.4714
     15 C          65.6868   92.0653   13.2906 C.3     1  UNL1        0.2525
     16 C          65.9100   93.4587   12.7822 C.3     1  UNL1        0.2525
     17 O          67.1222   93.7702   11.9553 O.3     1  UNL1       -0.4697
     18 C          66.9797   94.5406   10.6761 C.ar    1  UNL1        0.1596
     19 C          66.4247   95.9339   10.6976 C.ar    1  UNL1        0.0921
     20 CL         66.0122   96.5569   11.9982 Cl      1  UNL1       -0.0791
     21 C          66.2822   96.7043    9.4185 C.ar    1  UNL1        0.0103
     22 C          66.6948   96.0814    8.1178 C.ar    1  UNL1       -0.0200
     23 C          66.5523   96.8517    6.8387 C.3     1  UNL1        0.0311
     24 C          67.2498   94.6879    8.0963 C.ar    1  UNL1        0.0103
     25 C          67.3923   93.9175    9.3754 C.ar    1  UNL1        0.0921
     26 CL         67.9473   92.5242    9.3539 Cl      1  UNL1       -0.0791
     27 N          61.7227   85.8147   10.8813 N.am    1  UNL1       -0.2770
     28 C          60.6822   86.8952   10.8870 C.2     1  UNL1        0.2270
     29 O          59.9601   87.2342   12.1573 O.2     1  UNL1       -0.2748
     30 C          62.4448   85.4757    9.6110 C.3     1  UNL1        0.0758
     31 C          63.3228   84.5488    8.8236 C.3     1  UNL1        0.0215
     32 C          62.8176   85.8153    8.1984 C.3     1  UNL1        0.0215
     33 C          62.0410   85.0732   12.1458 C.3     1  UNL1        0.1209
     34 C          64.2897   87.3779   14.4656 C.ar    1  UNL1       -0.0199
     35 C          65.4282   86.4496   14.7692 C.ar    1  UNL1       -0.0033
     36 C          65.4376   85.0626   14.1982 C.ar    1  UNL1        0.0108
     37 C          64.3086   84.6038   13.3238 C.ar    1  UNL1        0.0553
     38 CL         64.3180   83.2167   12.7528 Cl      1  UNL1       -0.0825
     39 C          63.1701   85.5320   13.0202 C.ar    1  UNL1        0.0079
     40 C          63.1606   86.9191   13.5912 C.ar    1  UNL1       -0.0060
     41 C          64.2803   88.7650   15.0366 C.3     1  UNL1        0.0584
     42 C          63.4843   89.0618   16.2728 C.3     1  UNL1        0.1469
     43 C          62.7402   87.0347   17.7176 C.3     1  UNL1        0.1741
     44 O          62.4159   88.1101   16.7234 O.3     1  UNL1       -0.3507
@<TRIPOS>BOND
     1    43    44    1
     2    44    42    1
     3    42    41    1
     4    41    34    1
     5    34    35   ar
     6    35    36   ar
     7    36    37   ar
     8    37    38    1
     9    37    39   ar
    10    39    33    1
    11    33    27    1
    12    27    28   am
    13    28    29    2
    14     1    28    1
    15     1     2    1
    16     2     3    1
    17     3     4    1
    18     4     5    1
    19     5     6    1
    20     6     8    1
    21     8     9   ar
    22     9    10   ar
    23    10    11   ar
    24    11    14    1
    25    14    15    1
    26    15    16    1
    27    16    17    1
    28    17    18    1
    29    18    19   ar
    30    19    20    1
    31    19    21   ar
    32    21    22   ar
    33    22    23    1
    34    22    24   ar
    35    24    25   ar
    36    25    26    1
    37    11    12   ar
    38    12    13   ar
    39    27    30    1
    40    30    31    1
    41    31    32    1
    42    39    40   ar
    43    40    34   ar
    44     6     1    1
    45    13     8   ar
    46    32    30    1
    47    25    18   ar
    48     3     7    1
@<TRIPOS>MOLECULE
*****
 44 48 0 0 0
SMALL
GASTEIGER

@<TRIPOS>ATOM
      1 C          60.4886   87.3631    9.6010 C.3     1  UNL1        0.0964
      2 C          59.5895   86.5453    8.7219 C.3     1  UNL1        0.0780
      3 N          58.9034   87.1831    7.5505 N.3     1  UNL1       -0.2970
      4 C          59.1164   88.6388    7.2581 C.3     1  UNL1        0.0689
      5 C          60.0155   89.4567    8.1372 C.3     1  UNL1        0.0220
      6 C          60.7016   88.8188    9.3086 C.3     1  UNL1        0.0337
      7 H          57.9012   87.0544    7.6903 H       1  UNL1        0.1233
      8 C          61.6006   89.6366   10.1877 C.ar    1  UNL1       -0.0217
      9 C          62.6581   90.5071    9.5762 C.ar    1  UNL1       -0.0012
     10 C          63.5572   91.3249   10.4552 C.ar    1  UNL1        0.0366
     11 C          63.3988   91.2723   11.9459 C.ar    1  UNL1        0.1387
     12 C          62.3413   90.4019   12.5575 C.ar    1  UNL1        0.0366
     13 C          61.4422   89.5841   11.6784 C.ar    1  UNL1       -0.0012
     14 O          64.2979   92.0902   12.8250 O.3     1  UNL1       -0.4714
     15 C          65.6492   91.5656   13.2106 C.3     1  UNL1        0.2525
     16 C          66.8765   92.3853   12.9421 C.3     1  UNL1        0.2525
     17 O          67.5337   92.3324   11.5948 O.3     1  UNL1       -0.4697
     18 C          67.3513   93.4632   10.6264 C.ar    1  UNL1        0.1596
     19 C          66.6831   94.7306   11.0706 C.ar    1  UNL1        0.0921
     20 CL         66.1974   94.8670   12.4831 Cl      1  UNL1       -0.0791
     21 C          66.5006   95.8615   10.1022 C.ar    1  UNL1        0.0103
     22 C          66.9863   95.7250    8.6896 C.ar    1  UNL1       -0.0200
     23 C          66.8038   96.8559    7.7212 C.3     1  UNL1        0.0311
     24 C          67.6546   94.4577    8.2453 C.ar    1  UNL1        0.0103
     25 C          67.8370   93.3268    9.2137 C.ar    1  UNL1        0.0921
     26 CL         68.5052   92.0594    8.7695 Cl      1  UNL1       -0.0791
     27 N          62.3425   85.8104   10.5508 N.am    1  UNL1       -0.2770
     28 C          61.1747   86.7252   10.7725 C.2     1  UNL1        0.2270
     29 O          60.6928   87.0020   12.1658 O.2     1  UNL1       -0.2748
     30 C          62.8244   85.5336    9.1575 C.3     1  UNL1        0.0758
     31 C          63.8526   85.7094    8.0796 C.3     1  UNL1        0.0215
     32 C          62.6308   84.8781    7.8223 C.3     1  UNL1        0.0215
     33 C          63.0286   85.1725   11.7223 C.3     1  UNL1        0.1209
     34 C          63.0381   81.2509   11.1131 C.ar    1  UNL1       -0.0199
     35 C          62.5883   80.7545   12.4553 C.ar    1  UNL1       -0.0033
     36 C          62.2853   81.7307   13.5530 C.ar    1  UNL1        0.0108
     37 C          62.4321   83.2034   13.3087 C.ar    1  UNL1        0.0553
     38 CL         62.1291   84.1796   14.4065 Cl      1  UNL1       -0.0825
     39 C          62.8819   83.6998   11.9666 C.ar    1  UNL1        0.0079
     40 C          63.1849   82.7236   10.8688 C.ar    1  UNL1       -0.0060
     41 C          63.3411   80.2747   10.0153 C.3     1  UNL1        0.0584
     42 C          62.4527   79.0847    9.8035 C.3     1  UNL1        0.1469
     43 C          63.5794   76.7563   10.0466 C.3     1  UNL1        0.1741
     44 O          62.6819   77.8282   10.5901 O.3     1  UNL1       -0.3507
@<TRIPOS>BOND
     1    43    44    1
     2    44    42    1
     3    42    41    1
     4    41    34    1
     5    34    35   ar
     6    35    36   ar
     7    36    37   ar
     8    37    38    1
     9    37    39   ar
    10    39    33    1
    11    33    27    1
    12    27    28   am
    13    28    29    2
    14     1    28    1
    15     1     2    1
    16     2     3    1
    17     3     4    1
    18     4     5    1
    19     5     6    1
    20     6     8    1
    21     8     9   ar
    22     9    10   ar
    23    10    11   ar
    24    11    14    1
    25    14    15    1
    26    15    16    1
    27    16    17    1
    28    17    18    1
    29    18    19   ar
    30    19    20    1
    31    19    21   ar
    32    21    22   ar
    33    22    23    1
    34    22    24   ar
    35    24    25   ar
    36    25    26    1
    37    11    12   ar
    38    12    13   ar
    39    27    30    1
    40    30    31    1
    41    31    32    1
    42    39    40   ar
    43    40    34   ar
    44     6     1    1
    45    13     8   ar
    46    32    30    1
    47    25    18   ar
    48     3     7    1
@<TRIPOS>MOLECULE
*****
 44 48 0 0 0
SMALL
GASTEIGER

@<TRIPOS>ATOM
      1 C          65.2857   92.1948   13.4799 C.3     1  UNL1        0.0964
      2 C          66.1189   93.3498   13.0091 C.3     1  UNL1        0.0780
      3 N          67.2793   93.8228   13.8334 N.3     1  UNL1       -0.2970
      4 C          67.6066   93.1407   15.1286 C.3     1  UNL1        0.0689
      5 C          66.7735   91.9857   15.5995 C.3     1  UNL1        0.0220
      6 C          65.6130   91.5127   14.7751 C.3     1  UNL1        0.0337
      7 H          67.1042   94.8034   14.0530 H       1  UNL1        0.1233
      8 C          64.7799   90.3576   15.2460 C.ar    1  UNL1       -0.0217
      9 C          64.9162   89.0169   14.5874 C.ar    1  UNL1       -0.0012
     10 C          64.0830   87.8618   15.0583 C.ar    1  UNL1        0.0366
     11 C          63.1136   88.0475   16.1877 C.ar    1  UNL1        0.1387
     12 C          62.9773   89.3882   16.8462 C.ar    1  UNL1        0.0366
     13 C          63.8104   90.5433   16.3754 C.ar    1  UNL1       -0.0012
     14 O          62.2805   86.8924   16.6585 O.3     1  UNL1       -0.4714
     15 C          62.8755   85.5173   16.7274 C.3     1  UNL1        0.2525
     16 C          62.1819   84.3657   16.0620 C.3     1  UNL1        0.2525
     17 O          62.9575   83.1372   15.6887 O.3     1  UNL1       -0.4697
     18 C          63.2229   82.8276   14.2452 C.ar    1  UNL1        0.1596
     19 C          64.3591   83.4976   13.5311 C.ar    1  UNL1        0.0921
     20 CL         65.2300   84.4771   14.2604 Cl      1  UNL1       -0.0791
     21 C          64.6245   83.1880   12.0875 C.ar    1  UNL1        0.0103
     22 C          63.7536   82.2085   11.3582 C.ar    1  UNL1       -0.0200
     23 C          64.0189   81.8989    9.9146 C.3     1  UNL1        0.0311
     24 C          62.6172   81.5385   12.0723 C.ar    1  UNL1        0.0103
     25 C          62.3519   81.8481   13.5158 C.ar    1  UNL1        0.0921
     26 CL         61.2156   81.1781   14.2300 Cl      1  UNL1       -0.0791
     27 N          64.1842   91.8067   11.1591 N.am    1  UNL1       -0.2770
     28 C          64.1252   91.7218   12.6555 C.2     1  UNL1        0.2270
     29 O          62.9058   91.1639   13.3276 O.2     1  UNL1       -0.2748
     30 C          65.4037   92.3646   10.4870 C.3     1  UNL1        0.0758
     31 C          66.0871   93.4811    9.7547 C.3     1  UNL1        0.0215
     32 C          66.8323   92.2145   10.0554 C.3     1  UNL1        0.0215
     33 C          63.0237   91.3338   10.3347 C.3     1  UNL1        0.1209
     34 C          62.1613   87.5359   11.0977 C.ar    1  UNL1       -0.0199
     35 C          60.7407   87.6560   11.5645 C.ar    1  UNL1       -0.0033
     36 C          60.0813   89.0021   11.6212 C.ar    1  UNL1        0.0108
     37 C          60.8423   90.2280   11.2113 C.ar    1  UNL1        0.0553
     38 CL         60.1828   91.5740   11.2681 Cl      1  UNL1       -0.0825
     39 C          62.2627   90.1078   10.7446 C.ar    1  UNL1        0.0079
     40 C          62.9223   88.7618   10.6878 C.ar    1  UNL1       -0.0060
     41 C          62.8207   86.1898   11.0410 C.3     1  UNL1        0.0584
     42 C          62.5470   85.2685    9.8894 C.3     1  UNL1        0.1469
     43 C          60.8578   86.0803    8.0899 C.3     1  UNL1        0.1741
     44 O          62.2712   85.8323    8.5269 O.3     1  UNL1       -0.3507
@<TRIPOS>BOND
     1    43    44    1
     2    44    42    1
     3    42    41    1
     4    41    34    1
     5    34    35   ar
     6    35    36   ar
     7    36    37   ar
     8    37    38    1
     9    37    39   ar
    10    39    33    1
    11    33    27    1
    12    27    28   am
    13    28    29    2
    14     1    28    1
    15     1     2    1
    16     2     3    1
    17     3     4    1
    18     4     5    1
    19     5     6    1
    20     6     8    1
    21     8     9   ar
    22     9    10   ar
    23    10    11   ar
    24    11    14    1
    25    14    15    1
    26    15    16    1
    27    16    17    1
    28    17    18    1
    29    18    19   ar
    30    19    20    1
    31    19    21   ar
    32    21    22   ar
    33    22    23    1
    34    22    24   ar
    35    24    25   ar
    36    25    26    1
    37    11    12   ar
    38    12    13   ar
    39    27    30    1
    40    30    31    1
    41    31    32    1
    42    39    40   ar
    43    40    34   ar
    44     6     1    1
    45    13     8   ar
    46    32    30    1
    47    25    18   ar
    48     3     7    1
@<TRIPOS>MOLECULE
*****
 44 48 0 0 0
SMALL
GASTEIGER

@<TRIPOS>ATOM
      1 C          60.9309   87.0438    9.2272 C.3     1  UNL1        0.0964
      2 C          60.0646   86.2572    8.2887 C.3     1  UNL1        0.0780
      3 N          59.0550   86.9614    7.4316 N.3     1  UNL1       -0.2970
      4 C          58.9116   88.4523    7.5131 C.3     1  UNL1        0.0689
      5 C          59.7778   89.2389    8.4516 C.3     1  UNL1        0.0220
      6 C          60.7875   88.5347    9.3087 C.3     1  UNL1        0.0337
      7 H          58.1442   86.5649    7.6634 H       1  UNL1        0.1233
      8 C          61.6537   89.3213   10.2472 C.ar    1  UNL1       -0.0217
      9 C          62.8136   90.1093    9.7148 C.ar    1  UNL1       -0.0012
     10 C          63.6799   90.8960   10.6533 C.ar    1  UNL1        0.0366
     11 C          63.3862   90.8945   12.1242 C.ar    1  UNL1        0.1387
     12 C          62.2263   90.1065   12.6566 C.ar    1  UNL1        0.0366
     13 C          61.3600   89.3199   11.7181 C.ar    1  UNL1       -0.0012
     14 O          64.2525   91.6812   13.0628 O.3     1  UNL1       -0.4714
     15 C          65.3106   90.9862   13.8672 C.3     1  UNL1        0.2525
     16 C          66.6862   91.5763   13.9661 C.3     1  UNL1        0.2525
     17 O          67.4736   91.8557   12.7203 O.3     1  UNL1       -0.4697
     18 C          67.0970   93.0087   11.8378 C.ar    1  UNL1        0.1596
     19 C          67.2737   92.9048   10.3519 C.ar    1  UNL1        0.0921
     20 CL         67.8271   91.6480    9.7485 Cl      1  UNL1       -0.0791
     21 C          66.8970   94.0577    9.4693 C.ar    1  UNL1        0.0103
     22 C          66.3436   95.3145   10.0727 C.ar    1  UNL1       -0.0200
     23 C          65.9669   96.4675    9.1902 C.3     1  UNL1        0.0311
     24 C          66.1668   95.4185   11.5587 C.ar    1  UNL1        0.0103
     25 C          66.5435   94.2655   12.4412 C.ar    1  UNL1        0.0921
     26 CL         66.3668   94.3694   13.9271 Cl      1  UNL1       -0.0791
     27 N          62.7929   85.2525    9.4995 N.am    1  UNL1       -0.2770
     28 C          61.9406   86.3395   10.0843 C.2     1  UNL1        0.2270
     29 O          62.0978   86.7221   11.5261 O.2     1  UNL1       -0.2748
     30 C          62.6357   84.8699    8.0577 C.3     1  UNL1        0.0758
     31 C          61.8441   84.2103    6.9677 C.3     1  UNL1        0.0215
     32 C          63.1551   84.8666    6.6505 C.3     1  UNL1        0.0215
     33 C          63.8026   84.5482   10.3566 C.3     1  UNL1        0.1209
     34 C          62.8290   83.8361   14.1375 C.ar    1  UNL1       -0.0199
     35 C          62.4794   82.3789   14.0706 C.ar    1  UNL1       -0.0033
     36 C          62.5709   81.6449   12.7657 C.ar    1  UNL1        0.0108
     37 C          63.0120   82.3680   11.5277 C.ar    1  UNL1        0.0553
     38 CL         63.1034   81.6340   10.2228 Cl      1  UNL1       -0.0825
     39 C          63.3616   83.8251   11.5946 C.ar    1  UNL1        0.0079
     40 C          63.2701   84.5592   12.8996 C.ar    1  UNL1       -0.0060
     41 C          62.7376   84.5702   15.4424 C.3     1  UNL1        0.0584
     42 C          61.4282   85.1531   15.8849 C.3     1  UNL1        0.1469
     43 C          62.6090   86.3818   17.8460 C.3     1  UNL1        0.1741
     44 O          61.3927   86.1592   16.9969 O.3     1  UNL1       -0.3507
@<TRIPOS>BOND
     1    43    44    1
     2    44    42    1
     3    42    41    1
     4    41    34    1
     5    34    35   ar
     6    35    36   ar
     7    36    37   ar
     8    37    38    1
     9    37    39   ar
    10    39    33    1
    11    33    27    1
    12    27    28   am
    13    28    29    2
    14     1    28    1
    15     1     2    1
    16     2     3    1
    17     3     4    1
    18     4     5    1
    19     5     6    1
    20     6     8    1
    21     8     9   ar
    22     9    10   ar
    23    10    11   ar
    24    11    14    1
    25    14    15    1
    26    15    16    1
    27    16    17    1
    28    17    18    1
    29    18    19   ar
    30    19    20    1
    31    19    21   ar
    32    21    22   ar
    33    22    23    1
    34    22    24   ar
    35    24    25   ar
    36    25    26    1
    37    11    12   ar
    38    12    13   ar
    39    27    30    1
    40    30    31    1
    41    31    32    1
    42    39    40   ar
    43    40    34   ar
    44     6     1    1
    45    13     8   ar
    46    32    30    1
    47    25    18   ar
    48     3     7    1
@<TRIPOS>MOLECULE
*****
 44 48 0 0 0
SMALL
GASTEIGER

@<TRIPOS>ATOM
      1 C          60.5819   87.3109    9.6066 C.3     1  UNL1        0.0964
      2 C          59.6836   86.4894    8.7302 C.3     1  UNL1        0.0780
      3 N          58.9010   87.1470    7.6324 N.3     1  UNL1       -0.2970
      4 C          59.0167   88.6260    7.4111 C.3     1  UNL1        0.0689
      5 C          59.9151   89.4475    8.2876 C.3     1  UNL1        0.0220
      6 C          60.6977   88.7899    9.3853 C.3     1  UNL1        0.0337
      7 H          57.9165   86.9528    7.8156 H       1  UNL1        0.1233
      8 C          61.5960   89.6114   10.2617 C.ar    1  UNL1       -0.0217
      9 C          62.6350   90.5012    9.6464 C.ar    1  UNL1       -0.0012
     10 C          63.5334   91.3226   10.5228 C.ar    1  UNL1        0.0366
     11 C          63.3927   91.2543   12.0146 C.ar    1  UNL1        0.1387
     12 C          62.3537   90.3645   12.6300 C.ar    1  UNL1        0.0366
     13 C          61.4554   89.5431   11.7535 C.ar    1  UNL1       -0.0012
     14 O          64.2911   92.0758   12.8911 O.3     1  UNL1       -0.4714
     15 C          65.7463   91.7309   13.0064 C.3     1  UNL1        0.2525
     16 C          66.7098   92.1807   11.9485 C.3     1  UNL1        0.2525
     17 O          67.1731   93.6070   11.9135 O.3     1  UNL1       -0.4697
     18 C          67.0064   94.4192   10.6635 C.ar    1  UNL1        0.1596
     19 C          67.4495   93.8628    9.3428 C.ar    1  UNL1        0.0921
     20 CL         68.0591   92.4941    9.2722 Cl      1  UNL1       -0.0791
     21 C          67.2828   94.6750    8.0928 C.ar    1  UNL1        0.0103
     22 C          66.6731   96.0436    8.1634 C.ar    1  UNL1       -0.0200
     23 C          66.5065   96.8559    6.9134 C.3     1  UNL1        0.0311
     24 C          66.2301   96.6002    9.4841 C.ar    1  UNL1        0.0103
     25 C          66.3967   95.7879   10.7341 C.ar    1  UNL1        0.0921
     26 CL         65.9537   96.3444   12.0547 Cl      1  UNL1       -0.0791
     27 N          62.5115   85.7468   10.3685 N.am    1  UNL1       -0.2770
     28 C          61.3646   86.6532   10.7044 C.2     1  UNL1        0.2270
     29 O          61.0002   86.9021   12.1380 O.2     1  UNL1       -0.2748
     30 C          62.8759   85.4979    8.9349 C.3     1  UNL1        0.0758
     31 C          62.5673   84.8759    7.6053 C.3     1  UNL1        0.0215
     32 C          63.8155   85.6888    7.7814 C.3     1  UNL1        0.0215
     33 C          63.2941   85.0891   11.4663 C.3     1  UNL1        0.1209
     34 C          62.1609   81.7013   13.1950 C.ar    1  UNL1       -0.0199
     35 C          62.7795   80.6921   12.2735 C.ar    1  UNL1       -0.0033
     36 C          63.5696   81.1487   11.0831 C.ar    1  UNL1        0.0108
     37 C          63.7411   82.6144   10.8140 C.ar    1  UNL1        0.0553
     38 CL         64.5312   83.0709    9.6235 Cl      1  UNL1       -0.0825
     39 C          63.1226   83.6235   11.7354 C.ar    1  UNL1        0.0079
     40 C          62.3324   83.1669   12.9259 C.ar    1  UNL1       -0.0060
     41 C          61.3708   81.2447   14.3855 C.3     1  UNL1        0.0584
     42 C          60.3690   80.1376   14.2411 C.3     1  UNL1        0.1469
     43 C          57.9956   79.7097   15.2075 C.3     1  UNL1        0.1741
     44 O          58.9013   80.4463   14.2656 O.3     1  UNL1       -0.3507
@<TRIPOS>BOND
     1    43    44    1
     2    44    42    1
     3    42    41    1
     4    41    34    1
     5    34    35   ar
     6    35    36   ar
     7    36    37   ar
     8    37    38    1
     9    37    39   ar
    10    39    33    1
    11    33    27    1
    12    27    28   am
    13    28    29    2
    14     1    28    1
    15     1     2    1
    16     2     3    1
    17     3     4    1
    18     4     5    1
    19     5     6    1
    20     6     8    1
    21     8     9   ar
    22     9    10   ar
    23    10    11   ar
    24    11    14    1
    25    14    15    1
    26    15    16    1
    27    16    17    1
    28    17    18    1
    29    18    19   ar
    30    19    20    1
    31    19    21   ar
    32    21    22   ar
    33    22    23    1
    34    22    24   ar
    35    24    25   ar
    36    25    26    1
    37    11    12   ar
    38    12    13   ar
    39    27    30    1
    40    30    31    1
    41    31    32    1
    42    39    40   ar
    43    40    34   ar
    44     6     1    1
    45    13     8   ar
    46    32    30    1
    47    25    18   ar
    48     3     7    1
@<TRIPOS>MOLECULE
*****
 44 48 0 0 0
SMALL
GASTEIGER

@<TRIPOS>ATOM
      1 C          63.7736   90.8673   13.6181 C.3     1  UNL1        0.0964
      2 C          64.2123   92.1580   12.9923 C.3     1  UNL1        0.0780
      3 N          65.5530   92.7385   13.3318 N.3     1  UNL1       -0.2970
      4 C          66.4551   92.0284   14.2972 C.3     1  UNL1        0.0689
      5 C          66.0164   90.7377   14.9230 C.3     1  UNL1        0.0220
      6 C          64.6757   90.1571   14.5834 C.3     1  UNL1        0.0337
      7 H          65.3827   93.6676   13.7169 H       1  UNL1        0.1233
      8 C          64.2370   88.8664   15.2092 C.ar    1  UNL1       -0.0217
      9 C          64.5968   87.5603   14.5653 C.ar    1  UNL1       -0.0012
     10 C          64.1581   86.2696   15.1911 C.ar    1  UNL1        0.0366
     11 C          63.3596   86.2850   16.4609 C.ar    1  UNL1        0.1387
     12 C          62.9999   87.5911   17.1048 C.ar    1  UNL1        0.0366
     13 C          63.4385   88.8818   16.4789 C.ar    1  UNL1       -0.0012
     14 O          62.9209   84.9943   17.0867 O.3     1  UNL1       -0.4714
     15 C          62.3297   83.9106   16.2347 C.3     1  UNL1        0.2525
     16 C          63.0898   83.3875   15.0520 C.3     1  UNL1        0.2525
     17 O          62.5349   83.5578   13.6688 O.3     1  UNL1       -0.4697
     18 C          62.6746   82.4534   12.6635 C.ar    1  UNL1        0.1596
     19 C          63.2556   82.7398   11.3106 C.ar    1  UNL1        0.0921
     20 CL         63.6969   84.1306   10.9631 Cl      1  UNL1       -0.0791
     21 C          63.3954   81.6354   10.3052 C.ar    1  UNL1        0.0103
     22 C          62.9541   80.2446   10.6528 C.ar    1  UNL1       -0.0200
     23 C          63.0938   79.1402    9.6474 C.3     1  UNL1        0.0311
     24 C          62.3730   79.9581   12.0057 C.ar    1  UNL1        0.0103
     25 C          62.2332   81.0625   13.0111 C.ar    1  UNL1        0.0921
     26 CL         61.6522   80.7761   14.3639 Cl      1  UNL1       -0.0791
     27 N          61.9602   90.2731   11.8550 N.am    1  UNL1       -0.2770
     28 C          62.4328   90.2867   13.2785 C.2     1  UNL1        0.2270
     29 O          61.5647   89.7199   14.3625 O.2     1  UNL1       -0.2748
     30 C          62.8283   90.8399   10.7711 C.3     1  UNL1        0.0758
     31 C          63.0310   91.2186    9.3339 C.3     1  UNL1        0.0215
     32 C          64.1292   91.4430   10.3307 C.3     1  UNL1        0.0215
     33 C          60.6193   89.6925   11.5155 C.3     1  UNL1        0.1209
     34 C          59.6799   88.3779    7.8906 C.ar    1  UNL1       -0.0199
     35 C          60.1826   86.9663    7.9620 C.ar    1  UNL1       -0.0033
     36 C          60.8308   86.4636    9.2178 C.ar    1  UNL1        0.0108
     37 C          60.9763   87.3723   10.4023 C.ar    1  UNL1        0.0553
     38 CL         61.6246   86.8696   11.6581 Cl      1  UNL1       -0.0825
     39 C          60.4737   88.7838   10.3310 C.ar    1  UNL1        0.0079
     40 C          59.8255   89.2866    9.0751 C.ar    1  UNL1       -0.0060
     41 C          59.0317   88.8806    6.6349 C.3     1  UNL1        0.0584
     42 C          59.5222   90.1437    5.9914 C.3     1  UNL1        0.1469
     43 C          58.8216   92.0205    4.3371 C.3     1  UNL1        0.1741
     44 O          58.5428   91.1935    5.5571 O.3     1  UNL1       -0.3507
@<TRIPOS>BOND
     1    43    44    1
     2    44    42    1
     3    42    41    1
     4    41    34    1
     5    34    35   ar
     6    35    36   ar
     7    36    37   ar
     8    37    38    1
     9    37    39   ar
    10    39    33    1
    11    33    27    1
    12    27    28   am
    13    28    29    2
    14     1    28    1
    15     1     2    1
    16     2     3    1
    17     3     4    1
    18     4     5    1
    19     5     6    1
    20     6     8    1
    21     8     9   ar
    22     9    10   ar
    23    10    11   ar
    24    11    14    1
    25    14    15    1
    26    15    16    1
    27    16    17    1
    28    17    18    1
    29    18    19   ar
    30    19    20    1
    31    19    21   ar
    32    21    22   ar
    33    22    23    1
    34    22    24   ar
    35    24    25   ar
    36    25    26    1
    37    11    12   ar
    38    12    13   ar
    39    27    30    1
    40    30    31    1
    41    31    32    1
    42    39    40   ar
    43    40    34   ar
    44     6     1    1
    45    13     8   ar
    46    32    30    1
    47    25    18   ar
    48     3     7    1
@<TRIPOS>MOLECULE
*****
 44 48 0 0 0
SMALL
GASTEIGER

@<TRIPOS>ATOM
      1 C          60.4331   87.4887    9.5981 C.3     1  UNL1        0.0964
      2 C          59.6941   86.8603    8.4540 C.3     1  UNL1        0.0780
      3 N          59.3721   87.6706    7.2336 N.3     1  UNL1       -0.2970
      4 C          59.7890   89.1095    7.1572 C.3     1  UNL1        0.0689
      5 C          60.5280   89.7379    8.3013 C.3     1  UNL1        0.0220
      6 C          60.8500   88.9275    9.5218 C.3     1  UNL1        0.0337
      7 H          58.3578   87.6519    7.1269 H       1  UNL1        0.1233
      8 C          61.5890   89.5560   10.6659 C.ar    1  UNL1       -0.0217
      9 C          62.9525   90.1414   10.4469 C.ar    1  UNL1       -0.0012
     10 C          63.6915   90.7699   11.5910 C.ar    1  UNL1        0.0366
     11 C          63.0670   90.8129   12.9541 C.ar    1  UNL1        0.1387
     12 C          61.7035   90.2275   13.1731 C.ar    1  UNL1        0.0366
     13 C          60.9645   89.5990   12.0290 C.ar    1  UNL1       -0.0012
     14 O          63.8060   91.4414   14.0982 O.3     1  UNL1       -0.4714
     15 C          65.3033   91.5245   14.0686 C.3     1  UNL1        0.2525
     16 C          65.9910   92.8037   14.4438 C.3     1  UNL1        0.2525
     17 O          66.3124   93.8200   13.3883 O.3     1  UNL1       -0.4697
     18 C          66.9454   93.3877   12.0990 C.ar    1  UNL1        0.1596
     19 C          67.9660   92.2884   12.0960 C.ar    1  UNL1        0.0921
     20 CL         68.3536   91.6215   13.3824 Cl      1  UNL1       -0.0791
     21 C          68.5989   91.8561   10.8067 C.ar    1  UNL1        0.0103
     22 C          68.2113   92.5231    9.5202 C.ar    1  UNL1       -0.0200
     23 C          68.8443   92.0908    8.2309 C.3     1  UNL1        0.0311
     24 C          67.1907   93.6224    9.5231 C.ar    1  UNL1        0.0103
     25 C          66.5577   94.0547   10.8125 C.ar    1  UNL1        0.0921
     26 CL         65.5371   95.1539   10.8154 Cl      1  UNL1       -0.0791
     27 N          61.8046   85.6085   10.7532 N.am    1  UNL1       -0.2770
     28 C          60.7551   86.6782   10.8186 C.2     1  UNL1        0.2270
     29 O          60.0277   86.9376   12.1045 O.2     1  UNL1       -0.2748
     30 C          62.5321   85.3492    9.4673 C.3     1  UNL1        0.0758
     31 C          63.1860   84.3926    8.5148 C.3     1  UNL1        0.0215
     32 C          63.1381   85.8568    8.1925 C.3     1  UNL1        0.0215
     33 C          62.1266   84.7981   11.9737 C.3     1  UNL1        0.1209
     34 C          64.2552   87.0764   14.4289 C.ar    1  UNL1       -0.0199
     35 C          65.3796   86.1460   14.7757 C.ar    1  UNL1       -0.0033
     36 C          65.4196   84.7663   14.1884 C.ar    1  UNL1        0.0108
     37 C          64.3353   84.3170   13.2544 C.ar    1  UNL1        0.0553
     38 CL         64.3753   82.9374   12.6672 Cl      1  UNL1       -0.0825
     39 C          63.2110   85.2474   12.9077 C.ar    1  UNL1        0.0079
     40 C          63.1709   86.6271   13.4949 C.ar    1  UNL1       -0.0060
     41 C          64.2152   88.4561   15.0162 C.3     1  UNL1        0.0584
     42 C          63.4465   88.7119   16.2785 C.3     1  UNL1        0.1469
     43 C          62.7701   86.5868   17.6114 C.3     1  UNL1        0.1741
     44 O          62.3962   87.7394   16.7272 O.3     1  UNL1       -0.3507
@<TRIPOS>BOND
     1    43    44    1
     2    44    42    1
     3    42    41    1
     4    41    34    1
     5    34    35   ar
     6    35    36   ar
     7    36    37   ar
     8    37    38    1
     9    37    39   ar
    10    39    33    1
    11    33    27    1
    12    27    28   am
    13    28    29    2
    14     1    28    1
    15     1     2    1
    16     2     3    1
    17     3     4    1
    18     4     5    1
    19     5     6    1
    20     6     8    1
    21     8     9   ar
    22     9    10   ar
    23    10    11   ar
    24    11    14    1
    25    14    15    1
    26    15    16    1
    27    16    17    1
    28    17    18    1
    29    18    19   ar
    30    19    20    1
    31    19    21   ar
    32    21    22   ar
    33    22    23    1
    34    22    24   ar
    35    24    25   ar
    36    25    26    1
    37    11    12   ar
    38    12    13   ar
    39    27    30    1
    40    30    31    1
    41    31    32    1
    42    39    40   ar
    43    40    34   ar
    44     6     1    1
    45    13     8   ar
    46    32    30    1
    47    25    18   ar
    48     3     7    1
@<TRIPOS>MOLECULE
*****
 44 48 0 0 0
SMALL
GASTEIGER

@<TRIPOS>ATOM
      1 C          63.6356   90.1233   12.0857 C.3     1  UNL1        0.0964
      2 C          63.9078   91.1342   11.0114 C.3     1  UNL1        0.0780
      3 N          64.6788   92.3802   11.3320 N.3     1  UNL1       -0.2970
      4 C          65.1776   92.6155   12.7269 C.3     1  UNL1        0.0689
      5 C          64.9054   91.6047   13.8012 C.3     1  UNL1        0.0220
      6 C          64.1344   90.3586   13.4806 C.3     1  UNL1        0.0337
      7 H          64.0750   93.1684   11.0983 H       1  UNL1        0.1233
      8 C          63.8622   89.3478   14.5549 C.ar    1  UNL1       -0.0217
      9 C          63.0011   89.7129   15.7275 C.ar    1  UNL1       -0.0012
     10 C          62.7289   88.7021   16.8018 C.ar    1  UNL1        0.0366
     11 C          63.3179   87.3261   16.7036 C.ar    1  UNL1        0.1387
     12 C          64.1790   86.9609   15.5310 C.ar    1  UNL1        0.0366
     13 C          64.4512   87.9718   14.4567 C.ar    1  UNL1       -0.0012
     14 O          63.0457   86.3153   17.7779 O.3     1  UNL1       -0.4714
     15 C          62.3324   85.0389   17.4434 C.3     1  UNL1        0.2525
     16 C          62.3050   84.5438   16.0277 C.3     1  UNL1        0.2525
     17 O          62.9833   83.2543   15.6709 O.3     1  UNL1       -0.4697
     18 C          63.2240   82.9067   14.2318 C.ar    1  UNL1        0.1596
     19 C          62.3068   81.9515   13.5273 C.ar    1  UNL1        0.0921
     20 CL         61.1488   81.3440   14.2620 Cl      1  UNL1       -0.0791
     21 C          62.5476   81.6039   12.0881 C.ar    1  UNL1        0.0103
     22 C          63.7056   82.2115   11.3534 C.ar    1  UNL1       -0.0200
     23 C          63.9464   81.8639    9.9143 C.3     1  UNL1        0.0311
     24 C          64.6229   83.1667   12.0579 C.ar    1  UNL1        0.0103
     25 C          64.3822   83.5143   13.4971 C.ar    1  UNL1        0.0921
     26 CL         65.2994   84.4694   14.2016 Cl      1  UNL1       -0.0791
     27 N          61.3936   88.9572   11.4826 N.am    1  UNL1       -0.2770
     28 C          62.8646   88.8772   11.7651 C.2     1  UNL1        0.2270
     29 O          63.5646   87.5511   11.7269 O.2     1  UNL1       -0.2748
     30 C          60.6936   90.2834   11.5207 C.3     1  UNL1        0.0758
     31 C          59.4242   91.0823   11.5328 C.3     1  UNL1        0.0215
     32 C          60.7507   91.7813   11.5746 C.3     1  UNL1        0.0215
     33 C          60.6226   87.7111   11.1619 C.3     1  UNL1        0.1209
     34 C          59.3315   87.9439    7.4164 C.ar    1  UNL1       -0.0199
     35 C          59.7890   86.6213    6.8762 C.ar    1  UNL1       -0.0033
     36 C          60.5243   85.6621    7.7646 C.ar    1  UNL1        0.0108
     37 C          60.8021   86.0254    9.1931 C.ar    1  UNL1        0.0553
     38 CL         61.5374   85.0662   10.0815 Cl      1  UNL1       -0.0825
     39 C          60.3447   87.3479    9.7333 C.ar    1  UNL1        0.0079
     40 C          59.6094   88.3071    8.8449 C.ar    1  UNL1       -0.0060
     41 C          58.5962   88.9030    6.5280 C.3     1  UNL1        0.0584
     42 C          59.3169   90.0752    5.9307 C.3     1  UNL1        0.1469
     43 C          57.1158   91.1667    5.0856 C.3     1  UNL1        0.1741
     44 O          58.5487   91.2933    5.5109 O.3     1  UNL1       -0.3507
@<TRIPOS>BOND
     1    43    44    1
     2    44    42    1
     3    42    41    1
     4    41    34    1
     5    34    35   ar
     6    35    36   ar
     7    36    37   ar
     8    37    38    1
     9    37    39   ar
    10    39    33    1
    11    33    27    1
    12    27    28   am
    13    28    29    2
    14     1    28    1
    15     1     2    1
    16     2     3    1
    17     3     4    1
    18     4     5    1
    19     5     6    1
    20     6     8    1
    21     8     9   ar
    22     9    10   ar
    23    10    11   ar
    24    11    14    1
    25    14    15    1
    26    15    16    1
    27    16    17    1
    28    17    18    1
    29    18    19   ar
    30    19    20    1
    31    19    21   ar
    32    21    22   ar
    33    22    23    1
    34    22    24   ar
    35    24    25   ar
    36    25    26    1
    37    11    12   ar
    38    12    13   ar
    39    27    30    1
    40    30    31    1
    41    31    32    1
    42    39    40   ar
    43    40    34   ar
    44     6     1    1
    45    13     8   ar
    46    32    30    1
    47    25    18   ar
    48     3     7    1
