@<TRIPOS>MOLECULE
*****
 28 31 0 0 0
SMALL
GASTEIGER

@<TRIPOS>ATOM
      1 N          62.3514   88.7930    9.8911 N.am    1  UNL1       -0.2792
      2 C          62.0505   89.6131   11.1104 C.2     1  UNL1        0.2526
      3 O          60.6275   89.8644   11.5128 O.2     1  UNL1       -0.2697
      4 H          63.2853   88.6281    9.6269 H       1  UNL1        0.1552
      5 C          58.4121   89.4664    6.5701 C.3     1  UNL1        0.0311
      6 C          59.2597   88.5608    7.4137 C.ar    1  UNL1       -0.0205
      7 C          58.9852   87.0864    7.4403 C.ar    1  UNL1       -0.0027
      8 C          59.8328   86.1808    8.2838 C.ar    1  UNL1        0.0185
      9 C          60.9548   86.7497    9.1007 C.ar    1  UNL1        0.0789
     10 C          61.2293   88.2241    9.0741 C.ar    1  UNL1        0.0666
     11 C          60.3817   89.1297    8.2306 C.ar    1  UNL1        0.0119
     12 N          61.8024   85.8441    9.9443 N.ar    1  UNL1       -0.2852
     13 C          61.7171   85.6915   11.4340 C.ar    1  UNL1        0.1023
     14 C          62.7461   84.6852   11.8567 C.ar    1  UNL1        0.1196
     15 N          63.4674   84.2159   10.6281 N.ar    1  UNL1       -0.2220
     16 C          62.8842   84.9322    9.4462 C.ar    1  UNL1        0.1829
     17 C          63.1725   90.1820   11.9273 C.ar    1  UNL1        0.0919
     18 C          63.5644   89.5302   13.2202 C.ar    1  UNL1        0.1066
     19 N          64.6864   90.0991   14.0371 N.ar    1  UNL1       -0.2249
     20 C          65.4166   91.3199   13.5611 C.ar    1  UNL1        0.1623
     21 N          65.0247   91.9717   12.2683 N.ar    1  UNL1       -0.2249
     22 C          63.9027   91.4028   11.4514 C.ar    1  UNL1        0.1066
     23 C          66.5387   91.8888   14.3780 C.ar    1  UNL1        0.0358
     24 C          66.2671   92.4331   15.7491 C.ar    1  UNL1        0.0030
     25 C          67.3892   93.0019   16.5660 C.ar    1  UNL1        0.0001
     26 C          68.7828   93.0265   16.0118 C.ar    1  UNL1        0.0000
     27 C          69.0544   92.4823   14.6407 C.ar    1  UNL1        0.0001
     28 C          67.9323   91.9134   13.8238 C.ar    1  UNL1        0.0030
@<TRIPOS>BOND
     1     5     6    1
     2     6     7   ar
     3     7     8   ar
     4     8     9   ar
     5     9    12    1
     6    12    13   ar
     7    13    14   ar
     8    14    15   ar
     9    15    16   ar
    10     9    10   ar
    11    10     1    1
    12     1     2   am
    13     2     3    2
    14     2    17    1
    15    17    18   ar
    16    18    19   ar
    17    19    20   ar
    18    20    23    1
    19    23    24   ar
    20    24    25   ar
    21    25    26   ar
    22    26    27   ar
    23    27    28   ar
    24    20    21   ar
    25    21    22   ar
    26    10    11   ar
    27    11     6   ar
    28    16    12   ar
    29    22    17   ar
    30    28    23   ar
    31     1     4    1
@<TRIPOS>MOLECULE
*****
 28 31 0 0 0
SMALL
GASTEIGER

@<TRIPOS>ATOM
      1 N          65.6268   89.6540   13.7477 N.am    1  UNL1       -0.2792
      2 C          64.5052   89.0535   14.5422 C.2     1  UNL1        0.2526
      3 O          63.7815   89.8815   15.5624 O.2     1  UNL1       -0.2697
      4 H          66.1018   89.1106   13.0782 H       1  UNL1        0.1552
      5 C          68.3858   93.1977   16.3613 C.3     1  UNL1        0.0311
      6 C          67.4043   92.8544   15.2802 C.ar    1  UNL1       -0.0205
      7 C          66.8208   93.9396   14.4248 C.ar    1  UNL1       -0.0027
      8 C          65.8393   93.5963   13.3436 C.ar    1  UNL1        0.0185
      9 C          65.4413   92.1678   13.1179 C.ar    1  UNL1        0.0789
     10 C          66.0248   91.0826   13.9734 C.ar    1  UNL1        0.0666
     11 C          67.0063   91.4259   15.0545 C.ar    1  UNL1        0.0119
     12 N          64.4598   91.8245   12.0368 N.ar    1  UNL1       -0.2852
     13 C          63.1815   91.0607   12.2166 C.ar    1  UNL1        0.1023
     14 C          62.5159   90.9489   10.8770 C.ar    1  UNL1        0.1196
     15 N          63.3830   91.6436    9.8692 N.ar    1  UNL1       -0.2220
     16 C          64.5844   92.1848   10.5861 C.ar    1  UNL1        0.1829
     17 C          64.1072   87.6249   14.3166 C.ar    1  UNL1        0.0919
     18 C          64.3510   86.6007   15.3850 C.ar    1  UNL1        0.1066
     19 N          63.9530   85.1722   15.1593 N.ar    1  UNL1       -0.2249
     20 C          63.3113   84.7679   13.8652 C.ar    1  UNL1        0.1623
     21 N          63.0676   85.7921   12.7967 N.ar    1  UNL1       -0.2249
     22 C          63.4655   87.2206   13.0224 C.ar    1  UNL1        0.1066
     23 C          62.9133   83.3394   13.6395 C.ar    1  UNL1        0.0358
     24 C          61.9965   82.6541   14.6090 C.ar    1  UNL1        0.0030
     25 C          61.5985   81.2256   14.3833 C.ar    1  UNL1        0.0001
     26 C          62.1174   80.4823   13.1882 C.ar    1  UNL1        0.0000
     27 C          63.0343   81.1676   12.2187 C.ar    1  UNL1        0.0001
     28 C          63.4322   82.5961   12.4444 C.ar    1  UNL1        0.0030
@<TRIPOS>BOND
     1     5     6    1
     2     6     7   ar
     3     7     8   ar
     4     8     9   ar
     5     9    12    1
     6    12    13   ar
     7    13    14   ar
     8    14    15   ar
     9    15    16   ar
    10     9    10   ar
    11    10     1    1
    12     1     2   am
    13     2     3    2
    14     2    17    1
    15    17    18   ar
    16    18    19   ar
    17    19    20   ar
    18    20    23    1
    19    23    24   ar
    20    24    25   ar
    21    25    26   ar
    22    26    27   ar
    23    27    28   ar
    24    20    21   ar
    25    21    22   ar
    26    10    11   ar
    27    11     6   ar
    28    16    12   ar
    29    22    17   ar
    30    28    23   ar
    31     1     4    1
@<TRIPOS>MOLECULE
*****
 28 31 0 0 0
SMALL
GASTEIGER

@<TRIPOS>ATOM
      1 N          65.7932   91.5334   12.8205 N.am    1  UNL1       -0.2792
      2 C          64.4084   91.1085   13.2099 C.2     1  UNL1        0.2526
      3 O          63.8839   91.4251   14.5791 O.2     1  UNL1       -0.2697
      4 H          66.1374   91.3256   11.9218 H       1  UNL1        0.1552
      5 C          68.6677   91.5823   17.1489 C.3     1  UNL1        0.0311
      6 C          68.0908   92.2994   15.9644 C.ar    1  UNL1       -0.0205
      7 C          68.3743   93.7581   15.7597 C.ar    1  UNL1       -0.0027
      8 C          67.7974   94.4752   14.5752 C.ar    1  UNL1        0.0185
      9 C          66.9371   93.7337   13.5955 C.ar    1  UNL1        0.0789
     10 C          66.6536   92.2750   13.8002 C.ar    1  UNL1        0.0666
     11 C          67.2305   91.5579   14.9847 C.ar    1  UNL1        0.0119
     12 N          66.3602   94.4508   12.4110 N.ar    1  UNL1       -0.2852
     13 C          66.2640   95.9381   12.2418 C.ar    1  UNL1        0.1023
     14 C          65.6226   96.2131   10.9140 C.ar    1  UNL1        0.1196
     15 N          65.3224   94.8957   10.2626 N.ar    1  UNL1       -0.2220
     16 C          65.7782   93.8066   11.1878 C.ar    1  UNL1        0.1829
     17 C          63.5480   90.3669   12.2302 C.ar    1  UNL1        0.0919
     18 C          63.0338   91.0642   11.0057 C.ar    1  UNL1        0.1066
     19 N          62.1734   90.3226   10.0261 N.ar    1  UNL1       -0.2249
     20 C          61.8273   88.8837   10.2708 C.ar    1  UNL1        0.1623
     21 N          62.3415   88.1865   11.4953 N.ar    1  UNL1       -0.2249
     22 C          63.2019   88.9281   12.4750 C.ar    1  UNL1        0.1066
     23 C          60.9669   88.1422    9.2911 C.ar    1  UNL1        0.0358
     24 C          59.9490   88.8832    8.4758 C.ar    1  UNL1        0.0030
     25 C          59.0886   88.1416    7.4962 C.ar    1  UNL1        0.0001
     26 C          59.2462   86.6590    7.3317 C.ar    1  UNL1        0.0000
     27 C          60.2642   85.9180    8.1470 C.ar    1  UNL1        0.0001
     28 C          61.1245   86.6595    9.1267 C.ar    1  UNL1        0.0030
@<TRIPOS>BOND
     1     5     6    1
     2     6     7   ar
     3     7     8   ar
     4     8     9   ar
     5     9    12    1
     6    12    13   ar
     7    13    14   ar
     8    14    15   ar
     9    15    16   ar
    10     9    10   ar
    11    10     1    1
    12     1     2   am
    13     2     3    2
    14     2    17    1
    15    17    18   ar
    16    18    19   ar
    17    19    20   ar
    18    20    23    1
    19    23    24   ar
    20    24    25   ar
    21    25    26   ar
    22    26    27   ar
    23    27    28   ar
    24    20    21   ar
    25    21    22   ar
    26    10    11   ar
    27    11     6   ar
    28    16    12   ar
    29    22    17   ar
    30    28    23   ar
    31     1     4    1
@<TRIPOS>MOLECULE
*****
 28 31 0 0 0
SMALL
GASTEIGER

@<TRIPOS>ATOM
      1 N          71.0181   74.2178   14.5331 N.am    1  UNL1       -0.2792
      2 C          72.3053   74.9145   14.2051 C.2     1  UNL1        0.2526
      3 O          73.5895   74.4480   14.8241 O.2     1  UNL1       -0.2697
      4 H          70.1752   74.5240   14.1268 H       1  UNL1        0.1552
      5 C          71.0076   72.3688   19.3892 C.3     1  UNL1        0.0311
      6 C          71.0098   72.1301   17.9083 C.ar    1  UNL1       -0.0205
      7 C          71.0089   70.7283   17.3745 C.ar    1  UNL1       -0.0027
      8 C          71.0111   70.4897   15.8936 C.ar    1  UNL1        0.0185
      9 C          71.0141   71.6528   14.9465 C.ar    1  UNL1        0.0789
     10 C          71.0150   73.0546   15.4803 C.ar    1  UNL1        0.0666
     11 C          71.0128   73.2933   16.9612 C.ar    1  UNL1        0.0119
     12 N          71.0163   71.4142   13.4656 N.ar    1  UNL1       -0.2852
     13 C          69.8069   71.3548   12.5803 C.ar    1  UNL1        0.1023
     14 C          70.2714   71.0969   11.1775 C.ar    1  UNL1        0.1196
     15 N          71.7680   70.9969   11.1959 N.ar    1  UNL1       -0.2220
     16 C          72.2283   71.1930   12.6100 C.ar    1  UNL1        0.1829
     17 C          72.3084   76.0777   13.2579 C.ar    1  UNL1        0.0919
     18 C          73.5978   76.5503   12.6547 C.ar    1  UNL1        0.1066
     19 N          73.6008   77.7135   11.7076 N.ar    1  UNL1       -0.2249
     20 C          72.3144   78.4040   11.3638 C.ar    1  UNL1        0.1623
     21 N          71.0249   77.9314   11.9670 N.ar    1  UNL1       -0.2249
     22 C          71.0219   76.7683   12.9141 C.ar    1  UNL1        0.1066
     23 C          72.3174   79.5673   10.4167 C.ar    1  UNL1        0.0358
     24 C          72.1331   79.3374    8.9459 C.ar    1  UNL1        0.0030
     25 C          72.1362   80.5006    7.9989 C.ar    1  UNL1        0.0001
     26 C          72.3236   81.8936    8.5226 C.ar    1  UNL1        0.0000
     27 C          72.5078   82.1235    9.9933 C.ar    1  UNL1        0.0001
     28 C          72.5048   80.9603   10.9404 C.ar    1  UNL1        0.0030
@<TRIPOS>BOND
     1     5     6    1
     2     6     7   ar
     3     7     8   ar
     4     8     9   ar
     5     9    12    1
     6    12    13   ar
     7    13    14   ar
     8    14    15   ar
     9    15    16   ar
    10     9    10   ar
    11    10     1    1
    12     1     2   am
    13     2     3    2
    14     2    17    1
    15    17    18   ar
    16    18    19   ar
    17    19    20   ar
    18    20    23    1
    19    23    24   ar
    20    24    25   ar
    21    25    26   ar
    22    26    27   ar
    23    27    28   ar
    24    20    21   ar
    25    21    22   ar
    26    10    11   ar
    27    11     6   ar
    28    16    12   ar
    29    22    17   ar
    30    28    23   ar
    31     1     4    1
@<TRIPOS>MOLECULE
*****
 28 31 0 0 0
SMALL
GASTEIGER

@<TRIPOS>ATOM
      1 N          64.1031   88.0337   13.5910 N.am    1  UNL1       -0.2792
      2 C          63.7366   89.4643   13.8539 C.2     1  UNL1        0.2526
      3 O          62.7945   89.8041   14.9706 O.2     1  UNL1       -0.2697
      4 H          64.7214   87.8107   12.8581 H       1  UNL1        0.1552
      5 C          63.0152   86.0956   18.2878 C.3     1  UNL1        0.0311
      6 C          62.9835   85.9739   16.7931 C.ar    1  UNL1       -0.0205
      7 C          62.3761   84.7614   16.1521 C.ar    1  UNL1       -0.0027
      8 C          62.3443   84.6397   14.6574 C.ar    1  UNL1        0.0185
      9 C          62.9200   85.7304   13.8037 C.ar    1  UNL1        0.0789
     10 C          63.5274   86.9429   14.4447 C.ar    1  UNL1        0.0666
     11 C          63.5591   87.0646   15.9394 C.ar    1  UNL1        0.0119
     12 N          62.8882   85.6087   12.3089 N.ar    1  UNL1       -0.2852
     13 C          62.3019   86.6070   11.3553 C.ar    1  UNL1        0.1023
     14 C          62.4885   86.0826    9.9624 C.ar    1  UNL1        0.1196
     15 N          63.1902   84.7601   10.0552 N.ar    1  UNL1       -0.2220
     16 C          63.4373   84.4673   11.5054 C.ar    1  UNL1        0.1829
     17 C          64.3123   90.5551   13.0002 C.ar    1  UNL1        0.0919
     18 C          65.4686   91.3686   13.5015 C.ar    1  UNL1        0.1066
     19 N          66.0442   92.4593   12.6478 N.ar    1  UNL1       -0.2249
     20 C          65.4636   92.7366   11.2928 C.ar    1  UNL1        0.1623
     21 N          64.3074   91.9231   10.7915 N.ar    1  UNL1       -0.2249
     22 C          63.7318   90.8324   11.6452 C.ar    1  UNL1        0.1066
     23 C          66.0393   93.8274   10.4391 C.ar    1  UNL1        0.0358
     24 C          65.4927   95.2211   10.5334 C.ar    1  UNL1        0.0030
     25 C          66.0684   96.3118    9.6797 C.ar    1  UNL1        0.0001
     26 C          67.1907   96.0089    8.7317 C.ar    1  UNL1        0.0000
     27 C          67.7373   94.6153    8.6374 C.ar    1  UNL1        0.0001
     28 C          67.1616   93.5245    9.4911 C.ar    1  UNL1        0.0030
@<TRIPOS>BOND
     1     5     6    1
     2     6     7   ar
     3     7     8   ar
     4     8     9   ar
     5     9    12    1
     6    12    13   ar
     7    13    14   ar
     8    14    15   ar
     9    15    16   ar
    10     9    10   ar
    11    10     1    1
    12     1     2   am
    13     2     3    2
    14     2    17    1
    15    17    18   ar
    16    18    19   ar
    17    19    20   ar
    18    20    23    1
    19    23    24   ar
    20    24    25   ar
    21    25    26   ar
    22    26    27   ar
    23    27    28   ar
    24    20    21   ar
    25    21    22   ar
    26    10    11   ar
    27    11     6   ar
    28    16    12   ar
    29    22    17   ar
    30    28    23   ar
    31     1     4    1
@<TRIPOS>MOLECULE
*****
 28 31 0 0 0
SMALL
GASTEIGER

@<TRIPOS>ATOM
      1 N          61.9637   86.1526   11.5929 N.am    1  UNL1       -0.2792
      2 C          62.0667   86.0030   10.1040 C.2     1  UNL1        0.2526
      3 O          62.9155   84.9147    9.5165 O.2     1  UNL1       -0.2697
      4 H          61.4066   86.8670   11.9785 H       1  UNL1        0.1552
      5 C          63.0806   81.3118   13.1157 C.3     1  UNL1        0.0311
      6 C          63.2678   82.7935   13.2558 C.ar    1  UNL1       -0.0205
      7 C          64.2007   83.3364   14.2974 C.ar    1  UNL1       -0.0027
      8 C          64.3879   84.8180   14.4376 C.ar    1  UNL1        0.0185
      9 C          63.6422   85.7568   13.5361 C.ar    1  UNL1        0.0789
     10 C          62.7094   85.2139   12.4945 C.ar    1  UNL1        0.0666
     11 C          62.5222   83.7322   12.3543 C.ar    1  UNL1        0.0119
     12 N          63.8294   87.2384   13.6762 N.ar    1  UNL1       -0.2852
     13 C          64.4070   87.9455   14.8664 C.ar    1  UNL1        0.1023
     14 C          64.4065   89.4173   14.5765 C.ar    1  UNL1        0.1196
     15 N          63.8286   89.6198   13.2072 N.ar    1  UNL1       -0.2220
     16 C          63.4720   88.2732   12.6508 C.ar    1  UNL1        0.1829
     17 C          61.3210   86.9418    9.2024 C.ar    1  UNL1        0.0919
     18 C          61.3301   88.4155    9.4816 C.ar    1  UNL1        0.1066
     19 N          60.5844   89.3542    8.5801 N.ar    1  UNL1       -0.2249
     20 C          59.8297   88.8192    7.3994 C.ar    1  UNL1        0.1623
     21 N          59.8206   87.3454    7.1202 N.ar    1  UNL1       -0.2249
     22 C          60.5663   86.4067    8.0217 C.ar    1  UNL1        0.1066
     23 C          59.0840   89.7579    6.4978 C.ar    1  UNL1        0.0358
     24 C          59.8346   90.7643    5.6771 C.ar    1  UNL1        0.0030
     25 C          59.0889   91.7030    4.7756 C.ar    1  UNL1        0.0001
     26 C          57.5926   91.6353    4.6949 C.ar    1  UNL1        0.0000
     27 C          56.8420   90.6289    5.5156 C.ar    1  UNL1        0.0001
     28 C          57.5877   89.6902    6.4171 C.ar    1  UNL1        0.0030
@<TRIPOS>BOND
     1     5     6    1
     2     6     7   ar
     3     7     8   ar
     4     8     9   ar
     5     9    12    1
     6    12    13   ar
     7    13    14   ar
     8    14    15   ar
     9    15    16   ar
    10     9    10   ar
    11    10     1    1
    12     1     2   am
    13     2     3    2
    14     2    17    1
    15    17    18   ar
    16    18    19   ar
    17    19    20   ar
    18    20    23    1
    19    23    24   ar
    20    24    25   ar
    21    25    26   ar
    22    26    27   ar
    23    27    28   ar
    24    20    21   ar
    25    21    22   ar
    26    10    11   ar
    27    11     6   ar
    28    16    12   ar
    29    22    17   ar
    30    28    23   ar
    31     1     4    1
@<TRIPOS>MOLECULE
*****
 28 31 0 0 0
SMALL
GASTEIGER

@<TRIPOS>ATOM
      1 N          60.4485   93.5503   -0.4630 N.am    1  UNL1       -0.2792
      2 C          59.5019   94.5778    0.0830 C.2     1  UNL1        0.2526
      3 O          59.8543   95.3354    1.3287 O.2     1  UNL1       -0.2697
      4 H          60.2172   93.0531   -1.2806 H       1  UNL1        0.1552
      5 C          63.1258   91.1449    3.2848 C.3     1  UNL1        0.0311
      6 C          63.0862   92.0776    2.1107 C.ar    1  UNL1       -0.0205
      7 C          64.3455   92.7402    1.6364 C.ar    1  UNL1       -0.0027
      8 C          64.3058   93.6729    0.4623 C.ar    1  UNL1        0.0185
      9 C          63.0069   93.9430   -0.2375 C.ar    1  UNL1        0.0789
     10 C          61.7476   93.2803    0.2368 C.ar    1  UNL1        0.0666
     11 C          61.7872   92.3476    1.4109 C.ar    1  UNL1        0.0119
     12 N          62.9672   94.8757   -1.4116 N.ar    1  UNL1       -0.2852
     13 C          63.3800   94.5444   -2.8151 C.ar    1  UNL1        0.1023
     14 C          63.1757   95.7674   -3.6593 C.ar    1  UNL1        0.1196
     15 N          62.6367   96.8545   -2.7775 N.ar    1  UNL1       -0.2220
     16 C          62.5078   96.3034   -1.3883 C.ar    1  UNL1        0.1829
     17 C          58.2029   94.8478   -0.6169 C.ar    1  UNL1        0.0919
     18 C          57.8360   96.2502   -1.0024 C.ar    1  UNL1        0.1066
     19 N          56.5370   96.5202   -1.7021 N.ar    1  UNL1       -0.2249
     20 C          55.6049   95.3877   -2.0164 C.ar    1  UNL1        0.1623
     21 N          55.9718   93.9853   -1.6309 N.ar    1  UNL1       -0.2249
     22 C          57.2708   93.7154   -0.9311 C.ar    1  UNL1        0.1066
     23 C          54.3059   95.6577   -2.7162 C.ar    1  UNL1        0.0358
     24 C          53.0217   95.6546   -1.9412 C.ar    1  UNL1        0.0030
     25 C          51.7227   95.9246   -2.6410 C.ar    1  UNL1        0.0001
     26 C          51.7080   96.1977   -4.1158 C.ar    1  UNL1        0.0000
     27 C          52.9922   96.2009   -4.8909 C.ar    1  UNL1        0.0001
     28 C          54.2912   95.9309   -4.1911 C.ar    1  UNL1        0.0030
@<TRIPOS>BOND
     1     5     6    1
     2     6     7   ar
     3     7     8   ar
     4     8     9   ar
     5     9    12    1
     6    12    13   ar
     7    13    14   ar
     8    14    15   ar
     9    15    16   ar
    10     9    10   ar
    11    10     1    1
    12     1     2   am
    13     2     3    2
    14     2    17    1
    15    17    18   ar
    16    18    19   ar
    17    19    20   ar
    18    20    23    1
    19    23    24   ar
    20    24    25   ar
    21    25    26   ar
    22    26    27   ar
    23    27    28   ar
    24    20    21   ar
    25    21    22   ar
    26    10    11   ar
    27    11     6   ar
    28    16    12   ar
    29    22    17   ar
    30    28    23   ar
    31     1     4    1
@<TRIPOS>MOLECULE
*****
 28 31 0 0 0
SMALL
GASTEIGER

@<TRIPOS>ATOM
      1 N          63.6211   85.7165   13.0695 N.am    1  UNL1       -0.2792
      2 C          62.7912   86.8089   12.4629 C.2     1  UNL1        0.2526
      3 O          61.4029   86.5144   11.9773 O.2     1  UNL1       -0.2697
      4 H          64.5323   85.9098   13.3882 H       1  UNL1        0.1552
      5 C          62.6942   81.0421   10.9981 C.3     1  UNL1        0.0311
      6 C          62.5991   81.9924   12.1548 C.ar    1  UNL1       -0.0205
      7 C          61.9457   81.5558   13.4324 C.ar    1  UNL1       -0.0027
      8 C          61.8506   82.5061   14.5890 C.ar    1  UNL1        0.0185
      9 C          62.4091   83.8930   14.4681 C.ar    1  UNL1        0.0789
     10 C          63.0626   84.3296   13.1905 C.ar    1  UNL1        0.0666
     11 C          63.1576   83.3792   12.0338 C.ar    1  UNL1        0.0119
     12 N          62.3140   84.8433   15.6248 N.ar    1  UNL1       -0.2852
     13 C          63.4417   85.2507   16.5261 C.ar    1  UNL1        0.1023
     14 C          62.8992   86.2123   17.5416 C.ar    1  UNL1        0.1196
     15 N          61.4363   86.3991   17.2679 N.ar    1  UNL1       -0.2220
     16 C          61.0747   85.5530   16.0832 C.ar    1  UNL1        0.1829
     17 C          63.3497   88.1958   12.3419 C.ar    1  UNL1        0.0919
     18 C          63.1013   88.9986   11.0995 C.ar    1  UNL1        0.1066
     19 N          63.6598   90.3855   10.9785 N.ar    1  UNL1       -0.2249
     20 C          64.4667   90.9695   12.1001 C.ar    1  UNL1        0.1623
     21 N          64.7151   90.1667   13.3425 N.ar    1  UNL1       -0.2249
     22 C          64.1566   88.7799   13.4635 C.ar    1  UNL1        0.1066
     23 C          65.0252   92.3565   11.9791 C.ar    1  UNL1        0.0358
     24 C          65.7413   92.9805   13.1399 C.ar    1  UNL1        0.0030
     25 C          66.2998   94.3674   13.0189 C.ar    1  UNL1        0.0001
     26 C          66.1421   95.1302   11.7370 C.ar    1  UNL1        0.0000
     27 C          65.4260   94.5062   10.5761 C.ar    1  UNL1        0.0001
     28 C          64.8675   93.1193   10.6972 C.ar    1  UNL1        0.0030
@<TRIPOS>BOND
     1     5     6    1
     2     6     7   ar
     3     7     8   ar
     4     8     9   ar
     5     9    12    1
     6    12    13   ar
     7    13    14   ar
     8    14    15   ar
     9    15    16   ar
    10     9    10   ar
    11    10     1    1
    12     1     2   am
    13     2     3    2
    14     2    17    1
    15    17    18   ar
    16    18    19   ar
    17    19    20   ar
    18    20    23    1
    19    23    24   ar
    20    24    25   ar
    21    25    26   ar
    22    26    27   ar
    23    27    28   ar
    24    20    21   ar
    25    21    22   ar
    26    10    11   ar
    27    11     6   ar
    28    16    12   ar
    29    22    17   ar
    30    28    23   ar
    31     1     4    1
@<TRIPOS>MOLECULE
*****
 28 31 0 0 0
SMALL
GASTEIGER

@<TRIPOS>ATOM
      1 N          65.5250   91.5585   12.3174 N.am    1  UNL1       -0.2792
      2 C          64.1644   91.0721   12.7201 C.2     1  UNL1        0.2526
      3 O          63.0374   92.0483   12.8849 O.2     1  UNL1       -0.2697
      4 H          66.2646   90.9178   12.2092 H       1  UNL1        0.1552
      5 C          65.2152   95.7197    9.2209 C.3     1  UNL1        0.0311
      6 C          65.6038   95.1016   10.5312 C.ar    1  UNL1       -0.0205
      7 C          66.2260   95.9458   11.6036 C.ar    1  UNL1       -0.0027
      8 C          66.6146   95.3276   12.9139 C.ar    1  UNL1        0.0185
      9 C          66.3809   93.8652   13.1518 C.ar    1  UNL1        0.0789
     10 C          65.7587   93.0210   12.0795 C.ar    1  UNL1        0.0666
     11 C          65.3701   93.6391   10.7692 C.ar    1  UNL1        0.0119
     12 N          66.7695   93.2470   14.4621 N.ar    1  UNL1       -0.2852
     13 C          68.1637   92.9032   14.8958 C.ar    1  UNL1        0.1023
     14 C          68.0880   92.3078   16.2705 C.ar    1  UNL1        0.1196
     15 N          66.6470   92.2837   16.6865 N.ar    1  UNL1       -0.2220
     16 C          65.8322   92.8642   15.5688 C.ar    1  UNL1        0.1829
     17 C          63.9306   89.6096   12.9580 C.ar    1  UNL1        0.0919
     18 C          64.4636   88.9571   14.1990 C.ar    1  UNL1        0.1066
     19 N          64.2299   87.4947   14.4369 N.ar    1  UNL1       -0.2249
     20 C          63.4632   86.6848   13.4337 C.ar    1  UNL1        0.1623
     21 N          62.9302   87.3373   12.1928 N.ar    1  UNL1       -0.2249
     22 C          63.1640   88.7997   11.9549 C.ar    1  UNL1        0.1066
     23 C          63.2295   85.2223   13.6717 C.ar    1  UNL1        0.0358
     24 C          63.1601   84.2752   12.5105 C.ar    1  UNL1        0.0030
     25 C          62.9263   82.8128   12.7485 C.ar    1  UNL1        0.0001
     26 C          62.7621   82.2974   14.1476 C.ar    1  UNL1        0.0000
     27 C          62.8315   83.2445   15.3087 C.ar    1  UNL1        0.0001
     28 C          63.0652   84.7069   15.0707 C.ar    1  UNL1        0.0030
@<TRIPOS>BOND
     1     5     6    1
     2     6     7   ar
     3     7     8   ar
     4     8     9   ar
     5     9    12    1
     6    12    13   ar
     7    13    14   ar
     8    14    15   ar
     9    15    16   ar
    10     9    10   ar
    11    10     1    1
    12     1     2   am
    13     2     3    2
    14     2    17    1
    15    17    18   ar
    16    18    19   ar
    17    19    20   ar
    18    20    23    1
    19    23    24   ar
    20    24    25   ar
    21    25    26   ar
    22    26    27   ar
    23    27    28   ar
    24    20    21   ar
    25    21    22   ar
    26    10    11   ar
    27    11     6   ar
    28    16    12   ar
    29    22    17   ar
    30    28    23   ar
    31     1     4    1
