@<TRIPOS>MOLECULE
*****
 40 43 0 0 0
SMALL
GASTEIGER

@<TRIPOS>ATOM
      1 C          63.9993   90.5840   13.5864 C.ar    1  UNL1        0.0203
      2 C          63.4095   91.3085   12.4128 C.ar    1  UNL1        0.0310
      3 C          62.7840   90.5342   11.2906 C.ar    1  UNL1        0.1414
      4 F          62.1942   91.2586   10.1170 F       1  UNL1       -0.2041
      5 C          62.7484   89.0355   11.3420 C.ar    1  UNL1        0.0440
      6 C          63.3382   88.3110   12.5156 C.ar    1  UNL1        0.0488
      7 C          63.9637   89.0854   13.6378 C.ar    1  UNL1       -0.0067
      8 C          64.5535   88.3609   14.8114 C.3     1  UNL1        0.0324
      9 C          65.9948   91.9457   14.5422 C.ar    1  UNL1        0.1870
     10 C          66.6202   92.7200   15.6644 C.ar    1  UNL1        0.1629
     11 N          67.9904   93.3074   15.4981 N.pl3   1  UNL1       -0.3401
     12 N          65.8755   92.9069   16.9530 N.ar    1  UNL1       -0.2063
     13 C          64.5054   92.3195   17.1194 C.ar    1  UNL1        0.2002
     14 N          63.8800   91.5452   15.9972 N.ar    1  UNL1       -0.2208
     15 C          64.6247   91.3584   14.7086 C.ar    1  UNL1        0.1194
     16 H          68.4792   93.1848   14.6523 H       1  UNL1        0.1438
     17 H          68.4009   93.8156   16.2346 H       1  UNL1        0.1438
     18 O          66.7396   91.7588   13.2537 O.3     1  UNL1       -0.4693
     19 C          66.8203   92.8833   12.2642 C.3     1  UNL1        0.2270
     20 C          66.5429   92.6264   10.8126 C.3     1  UNL1        0.1410
     21 C          66.6388   94.9063    9.5705 C.2     1  UNL1        0.2493
     22 O          65.5166   95.4185   10.4241 O.2     1  UNL1       -0.2699
     23 N          67.1519   93.5103    9.7648 N.am    1  UNL1       -0.2705
     24 C          68.2740   92.9981    8.9112 C.3     1  UNL1        0.1153
     25 C          66.3660   96.6121    7.6299 C.2     1  UNL1        0.0048
     26 C          67.2477   95.7903    8.5227 C.2     1  UNL1        0.0580
     27 N          63.3026   86.8124   12.5670 N.am    1  UNL1       -0.2805
     28 C          62.8574   86.0312   11.3664 C.2     1  UNL1        0.2517
     29 O          62.4479   86.7486   10.1144 O.2     1  UNL1       -0.2697
     30 H          63.5713   86.3415   13.3888 H       1  UNL1        0.1552
     31 C          62.8218   84.5324   11.4178 C.ar    1  UNL1        0.0810
     32 C          62.3434   83.8356   12.6570 C.ar    1  UNL1        0.0065
     33 C          62.3078   82.3370   12.7083 C.ar    1  UNL1       -0.0040
     34 C          62.7505   81.5351   11.5205 C.ar    1  UNL1       -0.0203
     35 C          63.2289   82.2319   10.2813 C.ar    1  UNL1        0.0255
     36 C          63.2645   83.7305   10.2300 C.ar    1  UNL1        0.1441
     37 F          63.7429   84.4274    8.9907 F       1  UNL1       -0.2040
     38 C          62.7149   80.0363   11.5718 C.3     1  UNL1        0.0224
     39 C          62.5282   78.7673   12.3494 C.3     1  UNL1        0.0047
     40 C          62.8399   78.7096   10.8833 C.3     1  UNL1        0.0047
@<TRIPOS>BOND
     1    25    26    2
     2    26    21    1
     3    21    22    2
     4    21    23   am
     5    23    24    1
     6    23    20    1
     7    20    19    1
     8    19    18    1
     9    18     9    1
    10     9    10   ar
    11    10    11    1
    12    10    12   ar
    13    12    13   ar
    14    13    14   ar
    15    14    15   ar
    16    15     1    1
    17     1     2   ar
    18     2     3   ar
    19     3     4    1
    20     3     5   ar
    21     5     6   ar
    22     6    27    1
    23    27    28   am
    24    28    29    2
    25    28    31    1
    26    31    32   ar
    27    32    33   ar
    28    33    34   ar
    29    34    38    1
    30    38    39    1
    31    39    40    1
    32    34    35   ar
    33    35    36   ar
    34    36    37    1
    35     6     7   ar
    36     7     8    1
    37    15     9   ar
    38     7     1   ar
    39    36    31   ar
    40    40    38    1
    41    11    16    1
    42    11    17    1
    43    27    30    1
@<TRIPOS>MOLECULE
*****
 40 43 0 0 0
SMALL
GASTEIGER

@<TRIPOS>ATOM
      1 C          63.4249   85.4285   15.5114 C.ar    1  UNL1        0.0203
      2 C          62.7765   85.6035   16.8527 C.ar    1  UNL1        0.0310
      3 C          62.7421   86.9570   17.4982 C.ar    1  UNL1        0.1414
      4 F          62.0937   87.1320   18.8395 F       1  UNL1       -0.2041
      5 C          63.3562   88.1356   16.8026 C.ar    1  UNL1        0.0440
      6 C          64.0046   87.9606   15.4613 C.ar    1  UNL1        0.0488
      7 C          64.0390   86.6070   14.8158 C.ar    1  UNL1       -0.0067
      8 C          64.6874   86.4321   13.4745 C.3     1  UNL1        0.0324
      9 C          62.7416   83.8441   13.5691 C.ar    1  UNL1        0.1870
     10 C          62.7760   82.4905   12.9236 C.ar    1  UNL1        0.1629
     11 N          62.0583   82.2596   11.6267 N.pl3   1  UNL1       -0.3401
     12 N          63.5280   81.3679   13.5749 N.ar    1  UNL1       -0.2063
     13 C          64.2456   81.5988   14.8716 C.ar    1  UNL1        0.2002
     14 N          64.2112   82.9523   15.5171 N.ar    1  UNL1       -0.2208
     15 C          63.4592   84.0749   14.8659 C.ar    1  UNL1        0.1194
     16 H          61.5648   82.9964   11.1993 H       1  UNL1        0.1438
     17 H          62.0809   81.3712   11.2031 H       1  UNL1        0.1438
     18 O          61.9896   84.9667   12.9178 O.3     1  UNL1       -0.4693
     19 C          62.1842   85.2524   11.4582 C.3     1  UNL1        0.2270
     20 C          62.1346   86.6655   10.9574 C.3     1  UNL1        0.1410
     21 C          60.5383   86.8083    8.9125 C.2     1  UNL1        0.2493
     22 O          61.4462   85.8977    8.1402 O.2     1  UNL1       -0.2699
     23 N          60.8825   87.1922   10.3211 N.am    1  UNL1       -0.2705
     24 C          59.9746   88.1028   11.0934 C.3     1  UNL1        0.1153
     25 C          59.3511   88.5251    7.3655 C.2     1  UNL1        0.0048
     26 C          59.2862   87.3350    8.2762 C.2     1  UNL1        0.0580
     27 N          64.6187   89.1391   14.7657 N.am    1  UNL1       -0.2805
     28 C          63.8557   89.8579   13.6928 C.2     1  UNL1        0.2517
     29 O          62.4786   89.3982   13.3156 O.2     1  UNL1       -0.2697
     30 H          65.5225   89.4409   15.0132 H       1  UNL1        0.1552
     31 C          64.4697   91.0365   12.9971 C.ar    1  UNL1        0.0810
     32 C          65.4245   91.9285   13.7337 C.ar    1  UNL1        0.0065
     33 C          66.0385   93.1070   13.0380 C.ar    1  UNL1       -0.0040
     34 C          65.6977   93.3935   11.6056 C.ar    1  UNL1       -0.0203
     35 C          64.7429   92.5015   10.8689 C.ar    1  UNL1        0.0255
     36 C          64.1289   91.3230   11.5647 C.ar    1  UNL1        0.1441
     37 F          63.1741   90.4310   10.8280 F       1  UNL1       -0.2040
     38 C          66.3118   94.5721   10.9098 C.3     1  UNL1        0.0224
     39 C          67.1918   95.1299    9.8309 C.3     1  UNL1        0.0047
     40 C          66.4953   96.0555   10.7838 C.3     1  UNL1        0.0047
@<TRIPOS>BOND
     1    25    26    2
     2    26    21    1
     3    21    22    2
     4    21    23   am
     5    23    24    1
     6    23    20    1
     7    20    19    1
     8    19    18    1
     9    18     9    1
    10     9    10   ar
    11    10    11    1
    12    10    12   ar
    13    12    13   ar
    14    13    14   ar
    15    14    15   ar
    16    15     1    1
    17     1     2   ar
    18     2     3   ar
    19     3     4    1
    20     3     5   ar
    21     5     6   ar
    22     6    27    1
    23    27    28   am
    24    28    29    2
    25    28    31    1
    26    31    32   ar
    27    32    33   ar
    28    33    34   ar
    29    34    38    1
    30    38    39    1
    31    39    40    1
    32    34    35   ar
    33    35    36   ar
    34    36    37    1
    35     6     7   ar
    36     7     8    1
    37    15     9   ar
    38     7     1   ar
    39    36    31   ar
    40    40    38    1
    41    11    16    1
    42    11    17    1
    43    27    30    1
@<TRIPOS>MOLECULE
*****
 40 43 0 0 0
SMALL
GASTEIGER

@<TRIPOS>ATOM
      1 C          60.3896   88.2571   10.5445 C.ar    1  UNL1        0.0203
      2 C          59.1461   88.2280   11.3828 C.ar    1  UNL1        0.0310
      3 C          59.0817   89.0172   12.6567 C.ar    1  UNL1        0.1414
      4 F          57.8381   88.9880   13.4950 F       1  UNL1       -0.2041
      5 C          60.2609   89.8356   13.0924 C.ar    1  UNL1        0.0440
      6 C          61.5045   89.8647   12.2541 C.ar    1  UNL1        0.0488
      7 C          61.5688   89.0754   10.9801 C.ar    1  UNL1       -0.0067
      8 C          62.8123   89.1046   10.1418 C.3     1  UNL1        0.0324
      9 C          61.4976   86.4043    9.0990 C.ar    1  UNL1        0.1870
     10 C          61.5619   85.6151    7.8251 C.ar    1  UNL1        0.1629
     11 N          62.6057   84.5514    7.6536 N.pl3   1  UNL1       -0.3401
     12 N          60.5825   85.8895    6.7226 N.ar    1  UNL1       -0.2063
     13 C          59.5388   86.9530    6.8940 C.ar    1  UNL1        0.2002
     14 N          59.4745   87.7422    8.1680 N.ar    1  UNL1       -0.2208
     15 C          60.4539   87.4678    9.2705 C.ar    1  UNL1        0.1194
     16 H          63.2485   84.3713    8.3771 H       1  UNL1        0.1438
     17 H          62.6479   84.0334    6.8174 H       1  UNL1        0.1438
     18 O          62.4770   86.1299   10.2015 O.3     1  UNL1       -0.4693
     19 C          62.0725   85.2808   11.3700 C.3     1  UNL1        0.2270
     20 C          63.1208   84.6721   12.2535 C.3     1  UNL1        0.1410
     21 C          62.5963   82.2186   12.9280 C.2     1  UNL1        0.2493
     22 O          62.8507   81.7764   11.5175 O.2     1  UNL1       -0.2699
     23 N          62.7314   83.6664   13.2961 N.am    1  UNL1       -0.2705
     24 C          62.4770   84.1086   14.7066 C.3     1  UNL1        0.1153
     25 C          60.7702   80.8102   14.1246 C.2     1  UNL1        0.0048
     26 C          62.2069   81.2129   13.9706 C.2     1  UNL1        0.0580
     27 N          62.6836   90.6830   12.6897 N.am    1  UNL1       -0.2805
     28 C          63.5741   90.1885   13.7908 C.2     1  UNL1        0.2517
     29 O          63.2853   88.8755   14.4563 O.2     1  UNL1       -0.2697
     30 H          62.8731   91.5448   12.2530 H       1  UNL1        0.1552
     31 C          64.7533   91.0068   14.2265 C.ar    1  UNL1        0.0810
     32 C          65.8480   91.3233   13.2512 C.ar    1  UNL1        0.0065
     33 C          67.0272   92.1416   13.6869 C.ar    1  UNL1       -0.0040
     34 C          67.1116   92.6434   15.0980 C.ar    1  UNL1       -0.0203
     35 C          66.0169   92.3269   16.0733 C.ar    1  UNL1        0.0255
     36 C          64.8377   91.5086   15.6376 C.ar    1  UNL1        0.1441
     37 F          63.7429   91.1921   16.6129 F       1  UNL1       -0.2040
     38 C          68.2909   93.4618   15.5337 C.3     1  UNL1        0.0224
     39 C          68.8513   94.7260   16.1146 C.3     1  UNL1        0.0047
     40 C          69.7729   93.6149   15.7074 C.3     1  UNL1        0.0047
@<TRIPOS>BOND
     1    25    26    2
     2    26    21    1
     3    21    22    2
     4    21    23   am
     5    23    24    1
     6    23    20    1
     7    20    19    1
     8    19    18    1
     9    18     9    1
    10     9    10   ar
    11    10    11    1
    12    10    12   ar
    13    12    13   ar
    14    13    14   ar
    15    14    15   ar
    16    15     1    1
    17     1     2   ar
    18     2     3   ar
    19     3     4    1
    20     3     5   ar
    21     5     6   ar
    22     6    27    1
    23    27    28   am
    24    28    29    2
    25    28    31    1
    26    31    32   ar
    27    32    33   ar
    28    33    34   ar
    29    34    38    1
    30    38    39    1
    31    39    40    1
    32    34    35   ar
    33    35    36   ar
    34    36    37    1
    35     6     7   ar
    36     7     8    1
    37    15     9   ar
    38     7     1   ar
    39    36    31   ar
    40    40    38    1
    41    11    16    1
    42    11    17    1
    43    27    30    1
@<TRIPOS>MOLECULE
*****
 40 43 0 0 0
SMALL
GASTEIGER

@<TRIPOS>ATOM
      1 C          63.8170   88.3828   15.3991 C.ar    1  UNL1        0.0203
      2 C          63.3529   88.4644   16.8231 C.ar    1  UNL1        0.0310
      3 C          62.9480   87.2178   17.5526 C.ar    1  UNL1        0.1414
      4 F          62.4839   87.2994   18.9766 F       1  UNL1       -0.2041
      5 C          63.0072   85.8896   16.8580 C.ar    1  UNL1        0.0440
      6 C          63.4714   85.8080   15.4339 C.ar    1  UNL1        0.0488
      7 C          63.8763   87.0547   14.7045 C.ar    1  UNL1       -0.0067
      8 C          64.3404   86.9731   13.2804 C.3     1  UNL1        0.0324
      9 C          63.4150   90.1096   13.5000 C.ar    1  UNL1        0.1870
     10 C          63.8199   91.3562   12.7706 C.ar    1  UNL1        0.1629
     11 N          63.0129   91.8364   11.6009 N.pl3   1  UNL1       -0.3401
     12 N          65.0318   92.1226   13.2109 N.ar    1  UNL1       -0.2063
     13 C          65.8388   91.6425   14.3806 C.ar    1  UNL1        0.2002
     14 N          65.4338   90.3959   15.1100 N.ar    1  UNL1       -0.2208
     15 C          64.2219   89.6295   14.6697 C.ar    1  UNL1        0.1194
     16 H          62.2175   91.3334   11.3119 H       1  UNL1        0.1438
     17 H          63.2786   92.6546   11.1222 H       1  UNL1        0.1438
     18 O          62.2031   89.3432   13.0597 O.3     1  UNL1       -0.4693
     19 C          62.0241   88.9893   11.6131 C.3     1  UNL1        0.2270
     20 C          60.6937   88.5040   11.1187 C.3     1  UNL1        0.1410
     21 C          60.7678   86.6666    9.2832 C.2     1  UNL1        0.2493
     22 O          61.1673   85.6529   10.3141 O.2     1  UNL1       -0.2699
     23 N          60.5310   88.0921    9.6855 N.am    1  UNL1       -0.2705
     24 C          60.1314   89.1058    8.6546 C.3     1  UNL1        0.1153
     25 C          61.5541   85.2654    7.2416 C.2     1  UNL1        0.0048
     26 C          60.6050   86.2548    7.8500 C.2     1  UNL1        0.0580
     27 N          63.5306   84.4799   14.7393 N.am    1  UNL1       -0.2805
     28 C          62.6972   84.2354   13.5164 C.2     1  UNL1        0.2517
     29 O          61.8045   85.3189   12.9881 O.2     1  UNL1       -0.2697
     30 H          64.1165   83.7688   15.0860 H       1  UNL1        0.1552
     31 C          62.7564   82.9072   12.8217 C.ar    1  UNL1        0.0810
     32 C          62.3034   81.6673   13.5341 C.ar    1  UNL1        0.0065
     33 C          62.3626   80.3392   12.8394 C.ar    1  UNL1       -0.0040
     34 C          62.8748   80.2510   11.4323 C.ar    1  UNL1       -0.0203
     35 C          63.3278   81.4909   10.7199 C.ar    1  UNL1        0.0255
     36 C          63.2686   82.8189   11.4146 C.ar    1  UNL1        0.1441
     37 F          63.7216   84.0589   10.7022 F       1  UNL1       -0.2040
     38 C          62.9340   78.9228   10.7376 C.3     1  UNL1        0.0224
     39 C          63.2489   78.1073    9.5188 C.3     1  UNL1        0.0047
     40 C          62.7217   77.4380   10.7533 C.3     1  UNL1        0.0047
@<TRIPOS>BOND
     1    25    26    2
     2    26    21    1
     3    21    22    2
     4    21    23   am
     5    23    24    1
     6    23    20    1
     7    20    19    1
     8    19    18    1
     9    18     9    1
    10     9    10   ar
    11    10    11    1
    12    10    12   ar
    13    12    13   ar
    14    13    14   ar
    15    14    15   ar
    16    15     1    1
    17     1     2   ar
    18     2     3   ar
    19     3     4    1
    20     3     5   ar
    21     5     6   ar
    22     6    27    1
    23    27    28   am
    24    28    29    2
    25    28    31    1
    26    31    32   ar
    27    32    33   ar
    28    33    34   ar
    29    34    38    1
    30    38    39    1
    31    39    40    1
    32    34    35   ar
    33    35    36   ar
    34    36    37    1
    35     6     7   ar
    36     7     8    1
    37    15     9   ar
    38     7     1   ar
    39    36    31   ar
    40    40    38    1
    41    11    16    1
    42    11    17    1
    43    27    30    1
@<TRIPOS>MOLECULE
*****
 40 43 0 0 0
SMALL
GASTEIGER

@<TRIPOS>ATOM
      1 C          62.8923   96.0767   -1.6592 C.ar    1  UNL1        0.0203
      2 C          63.6787   96.2408   -2.9260 C.ar    1  UNL1        0.0310
      3 C          62.9739   96.5668   -4.2093 C.ar    1  UNL1        0.1414
      4 F          63.7602   96.7309   -5.4761 F       1  UNL1       -0.2041
      5 C          61.4827   96.7286   -4.2259 C.ar    1  UNL1        0.0440
      6 C          60.6963   96.5645   -2.9591 C.ar    1  UNL1        0.0488
      7 C          61.4012   96.2385   -1.6757 C.ar    1  UNL1       -0.0067
      8 C          60.6149   96.0744   -0.4090 C.3     1  UNL1        0.0324
      9 C          63.8150   94.3198    0.0177 C.ar    1  UNL1        0.1870
     10 C          64.5198   93.9939    1.3010 C.ar    1  UNL1        0.1629
     11 N          64.7376   92.5629    1.6947 N.pl3   1  UNL1       -0.3401
     12 N          65.0069   95.0989    2.1908 N.ar    1  UNL1       -0.2063
     13 C          64.7892   96.5299    1.7972 C.ar    1  UNL1        0.2002
     14 N          64.0843   96.8558    0.5139 N.ar    1  UNL1       -0.2208
     15 C          63.5972   95.7507   -0.3758 C.ar    1  UNL1        0.1194
     16 H          64.4179   91.8376    1.1107 H       1  UNL1        0.1438
     17 H          65.2002   92.3490    2.5370 H       1  UNL1        0.1438
     18 O          63.3279   93.2148   -0.8720 O.3     1  UNL1       -0.4693
     19 C          61.8585   92.9350   -0.9845 C.3     1  UNL1        0.2270
     20 C          61.1961   92.0024   -0.0142 C.3     1  UNL1        0.1410
     21 C          60.7422   92.5791    2.4781 C.2     1  UNL1        0.2493
     22 O          62.1036   92.0671    2.8445 O.2     1  UNL1       -0.2699
     23 N          60.2884   92.5467    1.0488 N.am    1  UNL1       -0.2705
     24 C          58.9269   93.0586    0.6823 C.3     1  UNL1        0.1153
     25 C          59.1298   92.1869    4.4772 C.2     1  UNL1        0.0048
     26 C          59.8344   93.1234    3.5410 C.2     1  UNL1        0.0580
     27 N          59.2052   96.7263   -2.9756 N.am    1  UNL1       -0.2805
     28 C          58.3286   95.5632   -3.3342 C.2     1  UNL1        0.2517
     29 O          58.9430   94.2383   -3.6763 O.2     1  UNL1       -0.2697
     30 H          58.8019   97.5959   -2.7511 H       1  UNL1        0.1552
     31 C          56.8374   95.7250   -3.3508 C.ar    1  UNL1        0.0810
     32 C          56.1091   95.8323   -4.6577 C.ar    1  UNL1        0.0065
     33 C          54.6179   95.9941   -4.6742 C.ar    1  UNL1       -0.0040
     34 C          53.8551   96.0485   -3.3838 C.ar    1  UNL1       -0.0203
     35 C          54.5834   95.9412   -2.0769 C.ar    1  UNL1        0.0255
     36 C          56.0745   95.7794   -2.0604 C.ar    1  UNL1        0.1441
     37 F          56.8029   95.6721   -0.7534 F       1  UNL1       -0.2040
     38 C          52.3639   96.2103   -3.4003 C.3     1  UNL1        0.0224
     39 C          51.0848   96.5377   -2.6885 C.3     1  UNL1        0.0047
     40 C          51.0602   96.1632   -4.1407 C.3     1  UNL1        0.0047
@<TRIPOS>BOND
     1    25    26    2
     2    26    21    1
     3    21    22    2
     4    21    23   am
     5    23    24    1
     6    23    20    1
     7    20    19    1
     8    19    18    1
     9    18     9    1
    10     9    10   ar
    11    10    11    1
    12    10    12   ar
    13    12    13   ar
    14    13    14   ar
    15    14    15   ar
    16    15     1    1
    17     1     2   ar
    18     2     3   ar
    19     3     4    1
    20     3     5   ar
    21     5     6   ar
    22     6    27    1
    23    27    28   am
    24    28    29    2
    25    28    31    1
    26    31    32   ar
    27    32    33   ar
    28    33    34   ar
    29    34    38    1
    30    38    39    1
    31    39    40    1
    32    34    35   ar
    33    35    36   ar
    34    36    37    1
    35     6     7   ar
    36     7     8    1
    37    15     9   ar
    38     7     1   ar
    39    36    31   ar
    40    40    38    1
    41    11    16    1
    42    11    17    1
    43    27    30    1
@<TRIPOS>MOLECULE
*****
 40 43 0 0 0
SMALL
GASTEIGER

@<TRIPOS>ATOM
      1 C          63.2716   93.6722   -3.4848 C.ar    1  UNL1        0.0203
      2 C          63.7521   93.3149   -2.1095 C.ar    1  UNL1        0.0310
      3 C          62.8507   93.5082   -0.9263 C.ar    1  UNL1        0.1414
      4 F          63.3313   93.1509    0.4490 F       1  UNL1       -0.2041
      5 C          61.4687   94.0590   -1.1183 C.ar    1  UNL1        0.0440
      6 C          60.9882   94.4164   -2.4935 C.ar    1  UNL1        0.0488
      7 C          61.8897   94.2230   -3.6768 C.ar    1  UNL1       -0.0067
      8 C          61.4091   94.5803   -5.0521 C.3     1  UNL1        0.0324
      9 C          64.9212   94.6464   -5.2397 C.ar    1  UNL1        0.1870
     10 C          65.8226   94.4530   -6.4229 C.ar    1  UNL1        0.1629
     11 N          66.5709   95.6206   -6.9946 N.pl3   1  UNL1       -0.3401
     12 N          65.9758   93.0919   -7.0344 N.ar    1  UNL1       -0.2063
     13 C          65.2277   91.9243   -6.4628 C.ar    1  UNL1        0.2002
     14 N          64.3263   92.1177   -5.2796 N.ar    1  UNL1       -0.2208
     15 C          64.1730   93.4788   -4.6680 C.ar    1  UNL1        0.1194
     16 H          66.4703   96.5140   -6.5932 H       1  UNL1        0.1438
     17 H          67.1625   95.4937   -7.7712 H       1  UNL1        0.1438
     18 O          64.7680   96.0075   -4.6281 O.3     1  UNL1       -0.4693
     19 C          65.3772   96.3010   -3.2892 C.3     1  UNL1        0.2270
     20 C          64.5280   96.8560   -2.1843 C.3     1  UNL1        0.1410
     21 C          64.0673   96.8378    0.3726 C.2     1  UNL1        0.2493
     22 O          62.5911   96.8321    0.1066 O.2     1  UNL1       -0.2699
     23 N          65.0358   96.8498   -0.7728 N.am    1  UNL1       -0.2705
     24 C          66.5120   96.8555   -0.5068 C.3     1  UNL1        0.1153
     25 C          64.9306   95.5342    2.4476 C.2     1  UNL1        0.0048
     26 C          64.5751   96.8316    1.7841 C.2     1  UNL1        0.0580
     27 N          59.6063   94.9671   -2.6856 N.am    1  UNL1       -0.2805
     28 C          58.4451   94.0343   -2.8628 C.2     1  UNL1        0.2517
     29 O          58.6659   92.5507   -2.8481 O.2     1  UNL1       -0.2697
     30 H          59.4614   95.9408   -2.6953 H       1  UNL1        0.1552
     31 C          57.0631   94.5850   -3.0549 C.ar    1  UNL1        0.0810
     32 C          56.2607   95.0283   -1.8676 C.ar    1  UNL1        0.0065
     33 C          54.8788   95.5790   -2.0597 C.ar    1  UNL1       -0.0040
     34 C          54.2992   95.6864   -3.4391 C.ar    1  UNL1       -0.0203
     35 C          55.1016   95.2431   -4.6263 C.ar    1  UNL1        0.0255
     36 C          56.4836   94.6924   -4.4342 C.ar    1  UNL1        0.1441
     37 F          57.2860   94.2490   -5.6215 F       1  UNL1       -0.2040
     38 C          52.9172   96.2371   -3.6311 C.3     1  UNL1        0.0224
     39 C          51.5679   96.5832   -3.0749 C.3     1  UNL1        0.0047
     40 C          51.8729   96.8448   -4.5200 C.3     1  UNL1        0.0047
@<TRIPOS>BOND
     1    25    26    2
     2    26    21    1
     3    21    22    2
     4    21    23   am
     5    23    24    1
     6    23    20    1
     7    20    19    1
     8    19    18    1
     9    18     9    1
    10     9    10   ar
    11    10    11    1
    12    10    12   ar
    13    12    13   ar
    14    13    14   ar
    15    14    15   ar
    16    15     1    1
    17     1     2   ar
    18     2     3   ar
    19     3     4    1
    20     3     5   ar
    21     5     6   ar
    22     6    27    1
    23    27    28   am
    24    28    29    2
    25    28    31    1
    26    31    32   ar
    27    32    33   ar
    28    33    34   ar
    29    34    38    1
    30    38    39    1
    31    39    40    1
    32    34    35   ar
    33    35    36   ar
    34    36    37    1
    35     6     7   ar
    36     7     8    1
    37    15     9   ar
    38     7     1   ar
    39    36    31   ar
    40    40    38    1
    41    11    16    1
    42    11    17    1
    43    27    30    1
