@<TRIPOS>MOLECULE
*****
 30 32 0 0 0
SMALL
GASTEIGER

@<TRIPOS>ATOM
      1 N          62.4969   86.6041   10.9283 N.ar    1  UNL1       -0.2487
      2 C          62.6332   88.0767   11.1794 C.ar    1  UNL1        0.2658
      3 O          62.2236   89.0588   10.1222 O.2     1  UNL1       -0.2668
      4 C          63.1791   88.5670   12.4876 C.ar    1  UNL1        0.0751
      5 C          63.4271   89.9484   13.0172 C.ar    1  UNL1       -0.0049
      6 C          63.1592   91.2327   12.2899 C.3     1  UNL1        0.0319
      7 C          63.9899   89.8199   14.4016 C.ar    1  UNL1        0.0805
      8 S          64.0898   88.3592   14.7277 S.2     1  UNL1       -0.0653
      9 C          63.5887   87.5849   13.5448 C.ar    1  UNL1        0.0982
     10 N          63.4524   86.1123   13.2937 N.ar    1  UNL1       -0.2754
     11 C          62.9065   85.6220   11.9854 C.ar    1  UNL1        0.3341
     12 O          62.7702   84.1494   11.7344 O.2     1  UNL1       -0.2462
     13 C          64.3838   90.9532   15.3019 C.2     1  UNL1        0.2548
     14 O          63.4153   91.4706   16.3239 O.2     1  UNL1       -0.2694
     15 N          65.7461   91.5691   15.1803 N.am    1  UNL1       -0.2755
     16 C          66.7146   91.0518   14.1583 C.3     1  UNL1        0.0962
     17 C          68.0768   91.6677   14.0367 C.3     1  UNL1        0.0508
     18 C          68.4707   92.8010   14.9370 C.3     1  UNL1        0.1139
     19 O          69.8330   93.4169   14.8153 O.3     1  UNL1       -0.3843
     20 C          67.5021   93.3183   15.9590 C.3     1  UNL1        0.0508
     21 C          66.1398   92.7024   16.0806 C.3     1  UNL1        0.0962
     22 H          70.3289   92.9686   14.1125 H       1  UNL1        0.2103
     23 C          62.8861   85.6335    8.5499 C.3     1  UNL1        0.0267
     24 C          61.9510   86.1137    9.6200 C.3     1  UNL1        0.1136
     25 C          63.8620   85.1301   14.3509 C.3     1  UNL1        0.1198
     26 C          62.8872   84.7255   15.4168 C.3     1  UNL1        0.1279
     27 C          62.7698   85.5370   16.6729 C.3     1  UNL1        0.3997
     28 F          62.6524   86.3485   17.9289 F       1  UNL1       -0.1700
     29 F          61.2749   85.5032   16.5548 F       1  UNL1       -0.1700
     30 F          64.2647   85.5708   16.7908 F       1  UNL1       -0.1700
@<TRIPOS>BOND
     1    23    24    1
     2    24     1    1
     3     1     2   ar
     4     2     3    2
     5     2     4   ar
     6     4     5   ar
     7     5     6    1
     8     5     7   ar
     9     7    13    1
    10    13    14    2
    11    13    15   am
    12    15    16    1
    13    16    17    1
    14    17    18    1
    15    18    19    1
    16    18    20    1
    17    20    21    1
    18     7     8   ar
    19     8     9   ar
    20     9    10   ar
    21    10    25    1
    22    25    26    1
    23    26    27    1
    24    27    28    1
    25    27    29    1
    26    27    30    1
    27    10    11   ar
    28    11    12    2
    29    11     1   ar
    30     9     4   ar
    31    21    15    1
    32    19    22    1
@<TRIPOS>MOLECULE
*****
 30 32 0 0 0
SMALL
GASTEIGER

@<TRIPOS>ATOM
      1 N          62.4574   86.6741   10.7341 N.ar    1  UNL1       -0.2487
      2 C          62.5771   88.1375   11.0412 C.ar    1  UNL1        0.2658
      3 O          62.1517   89.1546   10.0240 O.2     1  UNL1       -0.2668
      4 C          63.1223   88.5837   12.3655 C.ar    1  UNL1        0.0751
      5 C          63.3560   89.9465   12.9469 C.ar    1  UNL1       -0.0049
      6 C          63.0700   91.2545   12.2706 C.3     1  UNL1        0.0319
      7 C          63.9258   89.7717   14.3234 C.ar    1  UNL1        0.0805
      8 S          64.0443   88.3008   14.5927 S.2     1  UNL1       -0.0653
      9 C          63.5477   87.5666   13.3826 C.ar    1  UNL1        0.0982
     10 N          63.4279   86.1032   13.0755 N.ar    1  UNL1       -0.2754
     11 C          62.8827   85.6571   11.7512 C.ar    1  UNL1        0.3341
     12 O          62.7630   84.1937   11.4441 O.2     1  UNL1       -0.2462
     13 C          64.3097   90.8741   15.2653 C.2     1  UNL1        0.2548
     14 O          63.3389   91.3407   16.3093 O.2     1  UNL1       -0.2694
     15 N          65.6644   91.5100   15.1633 N.am    1  UNL1       -0.2755
     16 C          66.6353   91.0435   14.1194 C.3     1  UNL1        0.0962
     17 C          67.9900   91.6793   14.0173 C.3     1  UNL1        0.0508
     18 C          68.3739   92.7818   14.9592 C.3     1  UNL1        0.1139
     19 O          69.7286   93.4176   14.8572 O.3     1  UNL1       -0.3843
     20 C          67.4030   93.2483   16.0032 C.3     1  UNL1        0.0508
     21 C          66.0483   92.6125   16.1052 C.3     1  UNL1        0.0962
     22 H          70.2272   93.0024   14.1362 H       1  UNL1        0.2103
     23 C          62.8205   85.5887    8.4017 C.3     1  UNL1        0.0267
     24 C          61.9121   86.2279    9.4098 C.3     1  UNL1        0.1136
     25 C          63.8533   85.0861   14.0926 C.3     1  UNL1        0.1198
     26 C          62.8759   84.0574   14.5787 C.3     1  UNL1        0.1279
     27 C          63.1314   82.6012   14.3250 C.3     1  UNL1        0.3997
     28 F          63.3868   81.1451   14.0713 F       1  UNL1       -0.1700
     29 F          61.7326   82.2799   14.7611 F       1  UNL1       -0.1700
     30 F          64.5301   82.9225   13.8890 F       1  UNL1       -0.1700
@<TRIPOS>BOND
     1    23    24    1
     2    24     1    1
     3     1     2   ar
     4     2     3    2
     5     2     4   ar
     6     4     5   ar
     7     5     6    1
     8     5     7   ar
     9     7    13    1
    10    13    14    2
    11    13    15   am
    12    15    16    1
    13    16    17    1
    14    17    18    1
    15    18    19    1
    16    18    20    1
    17    20    21    1
    18     7     8   ar
    19     8     9   ar
    20     9    10   ar
    21    10    25    1
    22    25    26    1
    23    26    27    1
    24    27    28    1
    25    27    29    1
    26    27    30    1
    27    10    11   ar
    28    11    12    2
    29    11     1   ar
    30     9     4   ar
    31    21    15    1
    32    19    22    1
@<TRIPOS>MOLECULE
*****
 30 32 0 0 0
SMALL
GASTEIGER

@<TRIPOS>ATOM
      1 N          62.5851   86.0768   11.1069 N.ar    1  UNL1       -0.2487
      2 C          63.2285   86.3504   12.4341 C.ar    1  UNL1        0.2658
      3 O          63.7733   85.2167   13.2514 O.2     1  UNL1       -0.2668
      4 C          63.3271   87.7577   12.9438 C.ar    1  UNL1        0.0751
      5 C          63.9029   88.3303   14.2049 C.ar    1  UNL1       -0.0049
      6 C          64.5534   87.5521   15.3100 C.3     1  UNL1        0.0319
      7 C          63.7140   89.8179   14.1670 C.ar    1  UNL1        0.0805
      8 S          63.0214   90.1646   12.8824 S.2     1  UNL1       -0.0653
      9 C          62.7823   88.8913   12.1264 C.ar    1  UNL1        0.0982
     10 N          62.1389   88.6177   10.7993 N.ar    1  UNL1       -0.2754
     11 C          62.0403   87.2104   10.2896 C.ar    1  UNL1        0.3341
     12 O          61.3969   86.9368    8.9624 O.2     1  UNL1       -0.2462
     13 C          64.1424   90.7884   15.2275 C.2     1  UNL1        0.2548
     14 O          63.2254   91.1009   16.3727 O.2     1  UNL1       -0.2694
     15 N          65.4877   91.4464   15.1427 N.am    1  UNL1       -0.2755
     16 C          66.4046   91.1339   13.9975 C.3     1  UNL1        0.0962
     17 C          67.7499   91.7919   13.9128 C.3     1  UNL1        0.0508
     18 C          68.1783   92.7624   14.9733 C.3     1  UNL1        0.1139
     19 O          69.5236   93.4204   14.8885 O.3     1  UNL1       -0.3843
     20 C          67.2613   93.0749   16.1185 C.3     1  UNL1        0.0508
     21 C          65.9160   92.4169   16.2032 C.3     1  UNL1        0.0962
     22 H          69.9856   93.1106   14.0938 H       1  UNL1        0.2103
     23 C          63.5422   84.1286    9.6789 C.3     1  UNL1        0.0267
     24 C          62.4865   84.6694   10.5972 C.3     1  UNL1        0.1136
     25 C          61.5941   89.7513    9.9819 C.3     1  UNL1        0.1198
     26 C          60.1405   90.1102   10.0722 C.3     1  UNL1        0.1279
     27 C          59.3787   89.8410   11.3360 C.3     1  UNL1        0.3997
     28 F          58.6168   89.5718   12.5998 F       1  UNL1       -0.1700
     29 F          59.3758   91.3084   11.6468 F       1  UNL1       -0.1700
     30 F          59.3816   88.3736   11.0252 F       1  UNL1       -0.1700
@<TRIPOS>BOND
     1    23    24    1
     2    24     1    1
     3     1     2   ar
     4     2     3    2
     5     2     4   ar
     6     4     5   ar
     7     5     6    1
     8     5     7   ar
     9     7    13    1
    10    13    14    2
    11    13    15   am
    12    15    16    1
    13    16    17    1
    14    17    18    1
    15    18    19    1
    16    18    20    1
    17    20    21    1
    18     7     8   ar
    19     8     9   ar
    20     9    10   ar
    21    10    25    1
    22    25    26    1
    23    26    27    1
    24    27    28    1
    25    27    29    1
    26    27    30    1
    27    10    11   ar
    28    11    12    2
    29    11     1   ar
    30     9     4   ar
    31    21    15    1
    32    19    22    1
@<TRIPOS>MOLECULE
*****
 30 32 0 0 0
SMALL
GASTEIGER

@<TRIPOS>ATOM
      1 N          65.9312   91.5958   13.9412 N.ar    1  UNL1       -0.2487
      2 C          64.6535   90.8098   13.9371 C.ar    1  UNL1        0.2658
      3 O          64.2373   90.0486   15.1608 O.2     1  UNL1       -0.2668
      4 C          63.7922   90.7851   12.7093 C.ar    1  UNL1        0.0751
      5 C          62.4891   90.1047   12.4109 C.ar    1  UNL1       -0.0049
      6 C          61.7116   89.2361   13.3549 C.3     1  UNL1        0.0319
      7 C          62.1001   90.4454   11.0029 C.ar    1  UNL1        0.0805
      8 S          63.1627   91.3364   10.4311 S.2     1  UNL1       -0.0653
      9 C          64.2085   91.5463   11.4857 C.ar    1  UNL1        0.0982
     10 N          65.4861   92.3323   11.4899 N.ar    1  UNL1       -0.2754
     11 C          66.3474   92.3570   12.7177 C.ar    1  UNL1        0.3341
     12 O          67.6250   93.1430   12.7218 O.2     1  UNL1       -0.2462
     13 C          60.8652   89.9774   10.2916 C.2     1  UNL1        0.2548
     14 O          59.6128   90.8013   10.3423 O.2     1  UNL1       -0.2694
     15 N          60.8828   88.6855    9.5296 N.am    1  UNL1       -0.2755
     16 C          62.1352   87.8616    9.4789 C.3     1  UNL1        0.0962
     17 C          62.1527   86.5697    8.7169 C.3     1  UNL1        0.0508
     18 C          60.9178   86.1016    8.0055 C.3     1  UNL1        0.1139
     19 O          60.9354   84.8097    7.2435 O.3     1  UNL1       -0.3843
     20 C          59.6654   86.9256    8.0563 C.3     1  UNL1        0.0508
     21 C          59.6478   88.2175    8.8183 C.3     1  UNL1        0.0962
     22 H          61.8147   84.4060    7.3118 H       1  UNL1        0.2103
     23 C          66.7691   92.8138   16.0777 C.3     1  UNL1        0.0267
     24 C          66.7925   91.6206   15.1691 C.3     1  UNL1        0.1136
     25 C          65.9024   93.0935   10.2663 C.3     1  UNL1        0.1198
     26 C          67.3358   93.4969   10.0855 C.3     1  UNL1        0.1279
     27 C          68.2015   92.7682    9.1008 C.3     1  UNL1        0.3997
     28 F          69.0672   92.0394    8.1162 F       1  UNL1       -0.1700
     29 F          68.4120   91.6690   10.0995 F       1  UNL1       -0.1700
     30 F          67.9910   93.8673    8.1022 F       1  UNL1       -0.1700
@<TRIPOS>BOND
     1    23    24    1
     2    24     1    1
     3     1     2   ar
     4     2     3    2
     5     2     4   ar
     6     4     5   ar
     7     5     6    1
     8     5     7   ar
     9     7    13    1
    10    13    14    2
    11    13    15   am
    12    15    16    1
    13    16    17    1
    14    17    18    1
    15    18    19    1
    16    18    20    1
    17    20    21    1
    18     7     8   ar
    19     8     9   ar
    20     9    10   ar
    21    10    25    1
    22    25    26    1
    23    26    27    1
    24    27    28    1
    25    27    29    1
    26    27    30    1
    27    10    11   ar
    28    11    12    2
    29    11     1   ar
    30     9     4   ar
    31    21    15    1
    32    19    22    1
@<TRIPOS>MOLECULE
*****
 30 32 0 0 0
SMALL
GASTEIGER

@<TRIPOS>ATOM
      1 N          62.8305   85.5666   11.3448 N.ar    1  UNL1       -0.2487
      2 C          63.3475   85.9382   12.7030 C.ar    1  UNL1        0.2658
      3 O          63.7798   84.8670   13.6599 O.2     1  UNL1       -0.2668
      4 C          63.4322   87.3811   13.1042 C.ar    1  UNL1        0.0751
      5 C          63.8962   88.0464   14.3659 C.ar    1  UNL1       -0.0049
      6 C          64.4147   87.3514   15.5899 C.3     1  UNL1        0.0319
      7 C          63.7506   89.5288   14.1888 C.ar    1  UNL1        0.0805
      8 S          63.1966   89.7796   12.8175 S.2     1  UNL1       -0.0653
      9 C          62.9999   88.4522   12.1472 C.ar    1  UNL1        0.0982
     10 N          62.4829   88.0805   10.7891 N.ar    1  UNL1       -0.2754
     11 C          62.3982   86.6377   10.3879 C.ar    1  UNL1        0.3341
     12 O          61.8811   86.2660    9.0297 O.2     1  UNL1       -0.2462
     13 C          64.0980   90.5765   15.2045 C.2     1  UNL1        0.2548
     14 O          63.1337   90.9016   16.3065 O.2     1  UNL1       -0.2694
     15 N          65.4097   91.2990   15.1183 N.am    1  UNL1       -0.2755
     16 C          66.3740   90.9739   14.0164 C.3     1  UNL1        0.0962
     17 C          67.6857   91.6964   13.9301 C.3     1  UNL1        0.0508
     18 C          68.0331   92.7440   14.9459 C.3     1  UNL1        0.1139
     19 O          69.3448   93.4665   14.8597 O.3     1  UNL1       -0.3843
     20 C          67.0687   93.0691   16.0479 C.3     1  UNL1        0.0508
     21 C          65.7570   92.3466   16.1341 C.3     1  UNL1        0.0962
     22 H          69.8447   93.1390   14.0956 H       1  UNL1        0.2103
     23 C          63.9440   83.4362   10.3590 C.3     1  UNL1        0.0267
     24 C          62.7458   84.1236   10.9436 C.3     1  UNL1        0.1136
     25 C          62.0505   89.1517    9.8321 C.3     1  UNL1        0.1198
     26 C          60.5942   89.4756    9.6771 C.3     1  UNL1        0.1279
     27 C          59.7548   88.7070    8.6999 C.3     1  UNL1        0.3997
     28 F          58.9154   87.9383    7.7229 F       1  UNL1       -0.1700
     29 F          59.3235   87.7814    9.7987 F       1  UNL1       -0.1700
     30 F          60.1861   89.6325    7.6013 F       1  UNL1       -0.1700
@<TRIPOS>BOND
     1    23    24    1
     2    24     1    1
     3     1     2   ar
     4     2     3    2
     5     2     4   ar
     6     4     5   ar
     7     5     6    1
     8     5     7   ar
     9     7    13    1
    10    13    14    2
    11    13    15   am
    12    15    16    1
    13    16    17    1
    14    17    18    1
    15    18    19    1
    16    18    20    1
    17    20    21    1
    18     7     8   ar
    19     8     9   ar
    20     9    10   ar
    21    10    25    1
    22    25    26    1
    23    26    27    1
    24    27    28    1
    25    27    29    1
    26    27    30    1
    27    10    11   ar
    28    11    12    2
    29    11     1   ar
    30     9     4   ar
    31    21    15    1
    32    19    22    1
@<TRIPOS>MOLECULE
*****
 30 32 0 0 0
SMALL
GASTEIGER

@<TRIPOS>ATOM
      1 N          65.7826   92.1817   13.6820 N.ar    1  UNL1       -0.2487
      2 C          65.0885   92.0644   12.3574 C.ar    1  UNL1        0.2658
      3 O          65.6269   92.7924   11.1614 O.2     1  UNL1       -0.2668
      4 C          63.8560   91.2191   12.2288 C.ar    1  UNL1        0.0751
      5 C          62.9646   90.9156   11.0612 C.ar    1  UNL1       -0.0049
      6 C          63.1328   91.4362    9.6646 C.3     1  UNL1        0.0319
      7 C          61.8752   90.0000   11.5356 C.ar    1  UNL1        0.0805
      8 S          62.0935   89.7377   12.9963 S.2     1  UNL1       -0.0653
      9 C          63.3177   90.4912   13.4247 C.ar    1  UNL1        0.0982
     10 N          64.0118   90.6085   14.7492 N.ar    1  UNL1       -0.2754
     11 C          65.2443   91.4537   14.8778 C.ar    1  UNL1        0.3341
     12 O          65.9384   91.5710   16.2025 O.2     1  UNL1       -0.2462
     13 C          60.7629   89.4442   10.6967 C.2     1  UNL1        0.2548
     14 O          59.4016   90.0723   10.7446 O.2     1  UNL1       -0.2694
     15 N          61.0119   88.2605    9.8097 N.am    1  UNL1       -0.2755
     16 C          62.3732   87.6324    9.7617 C.3     1  UNL1        0.0962
     17 C          62.6222   86.4487    8.8747 C.3     1  UNL1        0.0508
     18 C          61.5099   85.8929    8.0358 C.3     1  UNL1        0.1139
     19 O          61.7589   84.7091    7.1488 O.3     1  UNL1       -0.3843
     20 C          60.1485   86.5210    8.0838 C.3     1  UNL1        0.0508
     21 C          59.8995   87.7048    8.9708 C.3     1  UNL1        0.0962
     22 H          62.6833   84.4285    7.2361 H       1  UNL1        0.2103
     23 C          68.3425   92.3817   14.0788 C.3     1  UNL1        0.0267
     24 C          67.0151   93.0270   13.8106 C.3     1  UNL1        0.1136
     25 C          63.4735   89.8805   15.9452 C.3     1  UNL1        0.1198
     26 C          63.4688   88.3808   15.9709 C.3     1  UNL1        0.1279
     27 C          63.1324   87.6535   17.2390 C.3     1  UNL1        0.3997
     28 F          62.7961   86.9263   18.5071 F       1  UNL1       -0.1700
     29 F          63.2296   88.9407   18.0029 F       1  UNL1       -0.1700
     30 F          63.0353   86.3663   16.4751 F       1  UNL1       -0.1700
@<TRIPOS>BOND
     1    23    24    1
     2    24     1    1
     3     1     2   ar
     4     2     3    2
     5     2     4   ar
     6     4     5   ar
     7     5     6    1
     8     5     7   ar
     9     7    13    1
    10    13    14    2
    11    13    15   am
    12    15    16    1
    13    16    17    1
    14    17    18    1
    15    18    19    1
    16    18    20    1
    17    20    21    1
    18     7     8   ar
    19     8     9   ar
    20     9    10   ar
    21    10    25    1
    22    25    26    1
    23    26    27    1
    24    27    28    1
    25    27    29    1
    26    27    30    1
    27    10    11   ar
    28    11    12    2
    29    11     1   ar
    30     9     4   ar
    31    21    15    1
    32    19    22    1
@<TRIPOS>MOLECULE
*****
 30 32 0 0 0
SMALL
GASTEIGER

@<TRIPOS>ATOM
      1 N          63.5944   90.0634   12.3354 N.ar    1  UNL1       -0.2487
      2 C          63.9750   89.0071   13.3301 C.ar    1  UNL1        0.2658
      3 O          64.8254   89.3627   14.5135 O.2     1  UNL1       -0.2668
      4 C          63.5051   87.5951   13.1414 C.ar    1  UNL1        0.0751
      5 C          63.7189   86.3497   13.9496 C.ar    1  UNL1       -0.0049
      6 C          64.5117   86.2475   15.2188 C.3     1  UNL1        0.0319
      7 C          63.0006   85.2244   13.2657 C.ar    1  UNL1        0.0805
      8 S          62.3429   85.7744   12.0348 S.2     1  UNL1       -0.0653
      9 C          62.6547   87.2396   11.9580 C.ar    1  UNL1        0.0982
     10 N          62.2742   88.2959   10.9633 N.ar    1  UNL1       -0.2754
     11 C          62.7441   89.7079   11.1521 C.ar    1  UNL1        0.3341
     12 O          62.3635   90.7642   10.1574 O.2     1  UNL1       -0.2462
     13 C          62.9490   83.7993   13.7309 C.2     1  UNL1        0.2548
     14 O          62.8904   83.4909   15.1977 O.2     1  UNL1       -0.2694
     15 N          62.9560   82.6827   12.7294 N.am    1  UNL1       -0.2755
     16 C          63.0146   82.9910   11.2627 C.3     1  UNL1        0.0962
     17 C          63.0217   81.8744   10.2612 C.3     1  UNL1        0.0508
     18 C          62.9701   80.4493   10.7264 C.3     1  UNL1        0.1139
     19 O          62.9771   79.3326    9.7249 O.3     1  UNL1       -0.3843
     20 C          62.9115   80.1409   12.1933 C.3     1  UNL1        0.0508
     21 C          62.9044   81.2576   13.1948 C.3     1  UNL1        0.0962
     22 H          63.0174   79.7021    8.8290 H       1  UNL1        0.2103
     23 C          65.2123   91.9987   11.7128 C.3     1  UNL1        0.0267
     24 C          64.0643   91.4755   12.5242 C.3     1  UNL1        0.1136
     25 C          61.4238   87.9404    9.7799 C.3     1  UNL1        0.1198
     26 C          61.8703   86.8683    8.8306 C.3     1  UNL1        0.1279
     27 C          60.8557   86.0972    8.0393 C.3     1  UNL1        0.3997
     28 F          59.8411   85.3262    7.2480 F       1  UNL1       -0.1700
     29 F          59.7523   86.8583    8.7126 F       1  UNL1       -0.1700
     30 F          61.9590   85.3362    7.3660 F       1  UNL1       -0.1700
@<TRIPOS>BOND
     1    23    24    1
     2    24     1    1
     3     1     2   ar
     4     2     3    2
     5     2     4   ar
     6     4     5   ar
     7     5     6    1
     8     5     7   ar
     9     7    13    1
    10    13    14    2
    11    13    15   am
    12    15    16    1
    13    16    17    1
    14    17    18    1
    15    18    19    1
    16    18    20    1
    17    20    21    1
    18     7     8   ar
    19     8     9   ar
    20     9    10   ar
    21    10    25    1
    22    25    26    1
    23    26    27    1
    24    27    28    1
    25    27    29    1
    26    27    30    1
    27    10    11   ar
    28    11    12    2
    29    11     1   ar
    30     9     4   ar
    31    21    15    1
    32    19    22    1
@<TRIPOS>MOLECULE
*****
 30 32 0 0 0
SMALL
GASTEIGER

@<TRIPOS>ATOM
      1 N          61.3772   86.5207    9.9820 N.ar    1  UNL1       -0.2487
      2 C          61.5564   88.0073   10.0713 C.ar    1  UNL1        0.2658
      3 O          60.8954   88.9041    9.0669 O.2     1  UNL1       -0.2668
      4 C          62.3967   88.5970   11.1650 C.ar    1  UNL1        0.0751
      5 C          62.7522   90.0142   11.5043 C.ar    1  UNL1       -0.0049
      6 C          62.3055   91.2376   10.7601 C.3     1  UNL1        0.0319
      7 C          63.6330   89.9932   12.7183 C.ar    1  UNL1        0.0805
      8 S          63.8218   88.5630   13.1294 S.2     1  UNL1       -0.0653
      9 C          63.0577   87.7001   12.1694 C.ar    1  UNL1        0.0982
     10 N          62.8784   86.2135   12.0800 N.ar    1  UNL1       -0.2754
     11 C          62.0381   85.6239   10.9863 C.ar    1  UNL1        0.3341
     12 O          61.8589   84.1372   10.8970 O.2     1  UNL1       -0.2462
     13 C          64.2216   91.1919   13.4013 C.2     1  UNL1        0.2548
     14 O          63.9871   91.4106   14.8666 O.2     1  UNL1       -0.2694
     15 N          65.0449   92.1719   12.6191 N.am    1  UNL1       -0.2755
     16 C          65.2795   91.9533   11.1538 C.3     1  UNL1        0.0962
     17 C          66.1027   92.9333   10.3716 C.3     1  UNL1        0.0508
     18 C          66.6913   94.1320   11.0547 C.3     1  UNL1        0.1139
     19 O          67.5146   95.1120   10.2724 O.3     1  UNL1       -0.3843
     20 C          66.4567   94.3506   12.5200 C.3     1  UNL1        0.0508
     21 C          65.6335   93.3706   13.3023 C.3     1  UNL1        0.0962
     22 H          67.5674   94.8243    9.3476 H       1  UNL1        0.2103
     23 C          61.1569   85.5953    7.5643 C.3     1  UNL1        0.0267
     24 C          60.5369   85.9309    8.8882 C.3     1  UNL1        0.1136
     25 C          63.5394   85.3166   13.0844 C.3     1  UNL1        0.1198
     26 C          62.7112   84.3801   13.9132 C.3     1  UNL1        0.1279
     27 C          63.0437   82.9178   13.9503 C.3     1  UNL1        0.3997
     28 F          63.3760   81.4556   13.9874 F       1  UNL1       -0.1700
     29 F          61.9218   82.6875   14.9190 F       1  UNL1       -0.1700
     30 F          64.1655   83.1482   12.9817 F       1  UNL1       -0.1700
@<TRIPOS>BOND
     1    23    24    1
     2    24     1    1
     3     1     2   ar
     4     2     3    2
     5     2     4   ar
     6     4     5   ar
     7     5     6    1
     8     5     7   ar
     9     7    13    1
    10    13    14    2
    11    13    15   am
    12    15    16    1
    13    16    17    1
    14    17    18    1
    15    18    19    1
    16    18    20    1
    17    20    21    1
    18     7     8   ar
    19     8     9   ar
    20     9    10   ar
    21    10    25    1
    22    25    26    1
    23    26    27    1
    24    27    28    1
    25    27    29    1
    26    27    30    1
    27    10    11   ar
    28    11    12    2
    29    11     1   ar
    30     9     4   ar
    31    21    15    1
    32    19    22    1
@<TRIPOS>MOLECULE
*****
 30 32 0 0 0
SMALL
GASTEIGER

@<TRIPOS>ATOM
      1 N          62.4360   85.4687   11.7037 N.ar    1  UNL1       -0.2487
      2 C          63.1760   86.2105   12.7771 C.ar    1  UNL1        0.2658
      3 O          63.7631   85.4627   13.9373 O.2     1  UNL1       -0.2668
      4 C          63.3288   87.7002   12.6902 C.ar    1  UNL1        0.0751
      5 C          64.0005   88.6944   13.5904 C.ar    1  UNL1       -0.0049
      6 C          64.7182   88.3813   14.8698 C.3     1  UNL1        0.0319
      7 C          63.8285   90.0566   12.9865 C.ar    1  UNL1        0.0805
      8 S          63.0505   89.9043   11.7131 S.2     1  UNL1       -0.0653
      9 C          62.7417   88.4479   11.5299 C.ar    1  UNL1        0.0982
     10 N          62.0018   87.7060   10.4566 N.ar    1  UNL1       -0.2754
     11 C          61.8489   86.2164   10.5435 C.ar    1  UNL1        0.3341
     12 O          61.1089   85.4745    9.4701 O.2     1  UNL1       -0.2462
     13 C          64.3440   91.3450   13.5560 C.2     1  UNL1        0.2548
     14 O          64.0791   91.6896   14.9916 O.2     1  UNL1       -0.2694
     15 N          65.1243   92.2889   12.6899 N.am    1  UNL1       -0.2755
     16 C          65.3893   91.9444   11.2542 C.3     1  UNL1        0.0962
     17 C          66.1696   92.8882   10.3881 C.3     1  UNL1        0.0508
     18 C          66.6851   94.1766   10.9576 C.3     1  UNL1        0.1139
     19 O          67.4655   95.1205   10.0915 O.3     1  UNL1       -0.3843
     20 C          66.4201   94.5211   12.3933 C.3     1  UNL1        0.0508
     21 C          65.6398   93.5773   13.2595 C.3     1  UNL1        0.0962
     22 H          67.5455   94.7491    9.1990 H       1  UNL1        0.2103
     23 C          63.3588   83.0820   11.2535 C.3     1  UNL1        0.0267
     24 C          62.2831   83.9789   11.7906 C.3     1  UNL1        0.1136
     25 C          61.4146   88.4538    9.2964 C.3     1  UNL1        0.1198
     26 C          59.9445   88.3635    9.0124 C.3     1  UNL1        0.1279
     27 C          59.4312   88.6208    7.6267 C.3     1  UNL1        0.3997
     28 F          58.9178   88.8781    6.2410 F       1  UNL1       -0.1700
     29 F          58.7169   87.3020    7.6465 F       1  UNL1       -0.1700
     30 F          60.1454   89.9396    7.6069 F       1  UNL1       -0.1700
@<TRIPOS>BOND
     1    23    24    1
     2    24     1    1
     3     1     2   ar
     4     2     3    2
     5     2     4   ar
     6     4     5   ar
     7     5     6    1
     8     5     7   ar
     9     7    13    1
    10    13    14    2
    11    13    15   am
    12    15    16    1
    13    16    17    1
    14    17    18    1
    15    18    19    1
    16    18    20    1
    17    20    21    1
    18     7     8   ar
    19     8     9   ar
    20     9    10   ar
    21    10    25    1
    22    25    26    1
    23    26    27    1
    24    27    28    1
    25    27    29    1
    26    27    30    1
    27    10    11   ar
    28    11    12    2
    29    11     1   ar
    30     9     4   ar
    31    21    15    1
    32    19    22    1
