@<TRIPOS>MOLECULE
*****
 17 18 0 0 0
SMALL
GASTEIGER

@<TRIPOS>ATOM
      1 C          62.2199   89.5905   10.5747 C.ar    1  UNL1        0.1386
      2 C          62.8206   90.8364    9.9943 C.ar    1  UNL1        0.0384
      3 C          63.8073   91.6356   10.7928 C.ar    1  UNL1        0.0207
      4 C          64.1935   91.1888   12.1717 C.ar    1  UNL1        0.0657
      5 C          63.5928   89.9429   12.7521 C.ar    1  UNL1        0.0207
      6 C          62.6061   89.1437   11.9535 C.ar    1  UNL1        0.0384
      7 N          65.1802   91.9880   12.9702 N.ar    1  UNL1       -0.2868
      8 C          65.9272   93.1979   12.4925 C.ar    1  UNL1        0.1825
      9 N          66.8019   93.6753   13.6137 N.ar    1  UNL1       -0.2280
     10 C          66.5955   92.7604   14.7843 C.ar    1  UNL1        0.0786
     11 C          67.2725   92.8692   16.1185 C.3     1  UNL1        0.0538
     12 C          65.5933   91.7177   14.3866 C.ar    1  UNL1        0.0962
     13 O          61.2332   88.7913    9.7762 O.3     1  UNL1       -0.4755
     14 C          60.7736   87.4532   10.2744 C.3     1  UNL1        0.2054
     15 C          61.1609   86.2052    9.5380 C.3     1  UNL1        0.0473
     16 C          62.8012   85.0725    7.8717 C.3     1  UNL1        0.0001
     17 C          62.5376   86.0739    8.9569 C.3     1  UNL1        0.0038
@<TRIPOS>BOND
     1    16    17    1
     2    17    15    1
     3    15    14    1
     4    14    13    1
     5    13     1    1
     6     1     2   ar
     7     2     3   ar
     8     3     4   ar
     9     4     7    1
    10     7     8   ar
    11     8     9   ar
    12     9    10   ar
    13    10    11    1
    14    10    12   ar
    15     4     5   ar
    16     5     6   ar
    17     6     1   ar
    18    12     7   ar
@<TRIPOS>MOLECULE
*****
 17 18 0 0 0
SMALL
GASTEIGER

@<TRIPOS>ATOM
      1 C          63.8721   83.2667   11.9043 C.ar    1  UNL1        0.1386
      2 C          63.8318   83.3479   10.4070 C.ar    1  UNL1        0.0384
      3 C          63.1091   84.4783    9.7363 C.ar    1  UNL1        0.0207
      4 C          62.4267   85.5276   10.5629 C.ar    1  UNL1        0.0657
      5 C          62.4669   85.4465   12.0601 C.ar    1  UNL1        0.0207
      6 C          63.1896   84.3160   12.7308 C.ar    1  UNL1        0.0384
      7 N          61.7040   86.6581    9.8922 N.ar    1  UNL1       -0.2868
      8 C          61.9256   88.1199   10.1453 C.ar    1  UNL1        0.1825
      9 N          60.9914   88.8904    9.2602 N.ar    1  UNL1       -0.2280
     10 C          60.1924   87.9049    8.4600 C.ar    1  UNL1        0.0786
     11 C          59.1381   88.2401    7.4471 C.3     1  UNL1        0.0538
     12 C          60.6328   86.5252    8.8506 C.ar    1  UNL1        0.0962
     13 O          64.5947   82.1363   12.5750 O.3     1  UNL1       -0.4755
     14 C          63.8271   81.1219   13.3698 C.3     1  UNL1        0.2054
     15 C          62.3783   80.8745   13.0701 C.3     1  UNL1        0.0473
     16 C          60.0516   80.4398   14.1413 C.3     1  UNL1        0.0001
     17 C          61.3323   81.2188   14.0887 C.3     1  UNL1        0.0038
@<TRIPOS>BOND
     1    16    17    1
     2    17    15    1
     3    15    14    1
     4    14    13    1
     5    13     1    1
     6     1     2   ar
     7     2     3   ar
     8     3     4   ar
     9     4     7    1
    10     7     8   ar
    11     8     9   ar
    12     9    10   ar
    13    10    11    1
    14    10    12   ar
    15     4     5   ar
    16     5     6   ar
    17     6     1   ar
    18    12     7   ar
@<TRIPOS>MOLECULE
*****
 17 18 0 0 0
SMALL
GASTEIGER

@<TRIPOS>ATOM
      1 C          64.1801   91.3091   12.3808 C.ar    1  UNL1        0.1386
      2 C          63.7098   91.5527   10.9775 C.ar    1  UNL1        0.0384
      3 C          62.9050   90.5071   10.2640 C.ar    1  UNL1        0.0207
      4 C          62.5705   89.2179   10.9539 C.ar    1  UNL1        0.0657
      5 C          63.0408   88.9743   12.3573 C.ar    1  UNL1        0.0207
      6 C          63.8456   90.0199   13.0707 C.ar    1  UNL1        0.0384
      7 N          61.7657   88.1723   10.2404 N.ar    1  UNL1       -0.2868
      8 C          61.9047   86.6879   10.4053 C.ar    1  UNL1        0.1825
      9 N          60.9055   86.0257    9.5036 N.ar    1  UNL1       -0.2280
     10 C          60.1489   87.1009    8.7814 C.ar    1  UNL1        0.0786
     11 C          59.0531   86.8870    7.7797 C.3     1  UNL1        0.0538
     12 C          60.6805   88.4275    9.2368 C.ar    1  UNL1        0.0962
     13 O          64.9849   92.3547   13.0943 O.3     1  UNL1       -0.4755
     14 C          66.4161   92.5901   12.7118 C.3     1  UNL1        0.2054
     15 C          67.5205   92.0830   13.5910 C.3     1  UNL1        0.0473
     16 C          67.4267   92.6781   16.1183 C.3     1  UNL1        0.0001
     17 C          67.2294   91.6883   15.0086 C.3     1  UNL1        0.0038
@<TRIPOS>BOND
     1    16    17    1
     2    17    15    1
     3    15    14    1
     4    14    13    1
     5    13     1    1
     6     1     2   ar
     7     2     3   ar
     8     3     4   ar
     9     4     7    1
    10     7     8   ar
    11     8     9   ar
    12     9    10   ar
    13    10    11    1
    14    10    12   ar
    15     4     5   ar
    16     5     6   ar
    17     6     1   ar
    18    12     7   ar
@<TRIPOS>MOLECULE
*****
 17 18 0 0 0
SMALL
GASTEIGER

@<TRIPOS>ATOM
      1 C          64.1446   91.3881   12.2106 C.ar    1  UNL1        0.1386
      2 C          63.6393   91.5986   10.8141 C.ar    1  UNL1        0.0384
      3 C          62.8386   90.5262   10.1366 C.ar    1  UNL1        0.0207
      4 C          62.5432   89.2434   10.8557 C.ar    1  UNL1        0.0657
      5 C          63.0485   89.0330   12.2522 C.ar    1  UNL1        0.0207
      6 C          63.8492   90.1053   12.9297 C.ar    1  UNL1        0.0384
      7 N          61.7425   88.1711   10.1783 N.ar    1  UNL1       -0.2868
      8 C          61.8860   86.6938   10.3949 C.ar    1  UNL1        0.1825
      9 N          60.8899   85.9974    9.5157 N.ar    1  UNL1       -0.2280
     10 C          60.1308   87.0444    8.7558 C.ar    1  UNL1        0.0786
     11 C          59.0368   86.7922    7.7610 C.3     1  UNL1        0.0538
     12 C          60.6577   88.3878    9.1652 C.ar    1  UNL1        0.0962
     13 O          64.9453   92.4605   12.8881 O.3     1  UNL1       -0.4755
     14 C          65.9547   93.2490   12.1075 C.3     1  UNL1        0.2054
     15 C          67.0365   92.5395   11.3485 C.3     1  UNL1        0.0473
     16 C          68.5408   92.3407    9.2395 C.3     1  UNL1        0.0001
     17 C          67.3898   92.9795    9.9586 C.3     1  UNL1        0.0038
@<TRIPOS>BOND
     1    16    17    1
     2    17    15    1
     3    15    14    1
     4    14    13    1
     5    13     1    1
     6     1     2   ar
     7     2     3   ar
     8     3     4   ar
     9     4     7    1
    10     7     8   ar
    11     8     9   ar
    12     9    10   ar
    13    10    11    1
    14    10    12   ar
    15     4     5   ar
    16     5     6   ar
    17     6     1   ar
    18    12     7   ar
@<TRIPOS>MOLECULE
*****
 17 18 0 0 0
SMALL
GASTEIGER

@<TRIPOS>ATOM
      1 C          62.3011   88.9884   11.5178 C.ar    1  UNL1        0.1386
      2 C          63.1520   89.1995   12.7349 C.ar    1  UNL1        0.0384
      3 C          64.0735   90.3807   12.8101 C.ar    1  UNL1        0.0207
      4 C          64.1441   91.3508   11.6682 C.ar    1  UNL1        0.0657
      5 C          63.2931   91.1397   10.4512 C.ar    1  UNL1        0.0207
      6 C          62.3716   89.9585   10.3760 C.ar    1  UNL1        0.0384
      7 N          65.0656   92.5320   11.7434 N.ar    1  UNL1       -0.2868
      8 C          65.8626   92.9535   12.9422 C.ar    1  UNL1        0.1825
      9 N          66.6415   94.1811   12.5727 N.ar    1  UNL1       -0.2280
     10 C          66.3258   94.5182   11.1456 C.ar    1  UNL1        0.0786
     11 C          66.8858   95.6719   10.3675 C.3     1  UNL1        0.0538
     12 C          65.3519   93.4990   10.6331 C.ar    1  UNL1        0.0962
     13 O          61.3796   87.8073   11.4427 O.3     1  UNL1       -0.4755
     14 C          60.6377   87.5144   10.1723 C.3     1  UNL1        0.2054
     15 C          61.1764   86.5018    9.2056 C.3     1  UNL1        0.0473
     16 C          59.0713   86.8050    7.7133 C.3     1  UNL1        0.0001
     17 C          60.4075   86.1700    7.9610 C.3     1  UNL1        0.0038
@<TRIPOS>BOND
     1    16    17    1
     2    17    15    1
     3    15    14    1
     4    14    13    1
     5    13     1    1
     6     1     2   ar
     7     2     3   ar
     8     3     4   ar
     9     4     7    1
    10     7     8   ar
    11     8     9   ar
    12     9    10   ar
    13    10    11    1
    14    10    12   ar
    15     4     5   ar
    16     5     6   ar
    17     6     1   ar
    18    12     7   ar
@<TRIPOS>MOLECULE
*****
 17 18 0 0 0
SMALL
GASTEIGER

@<TRIPOS>ATOM
      1 C          63.8061   83.6136   10.9959 C.ar    1  UNL1        0.1386
      2 C          63.1956   84.3838   12.1290 C.ar    1  UNL1        0.0384
      3 C          62.3826   85.6128   11.8484 C.ar    1  UNL1        0.0207
      4 C          62.1802   86.0715   10.4347 C.ar    1  UNL1        0.0657
      5 C          62.7907   85.3013    9.3016 C.ar    1  UNL1        0.0207
      6 C          63.6037   84.0723    9.5822 C.ar    1  UNL1        0.0384
      7 N          61.3673   87.3005   10.1542 N.ar    1  UNL1       -0.2868
      8 C          60.7630   87.6754    8.8334 C.ar    1  UNL1        0.1825
      9 N          60.0381   88.9770    9.0081 N.ar    1  UNL1       -0.2280
     10 C          60.1943   89.4065   10.4368 C.ar    1  UNL1        0.0786
     11 C          59.6285   90.6532   11.0496 C.3     1  UNL1        0.0538
     12 C          61.0158   88.3704   11.1451 C.ar    1  UNL1        0.0962
     13 O          64.6191   82.3846   11.2764 O.3     1  UNL1       -0.4755
     14 C          64.2203   81.4590   12.3874 C.3     1  UNL1        0.2054
     15 C          62.8982   80.7521   12.3365 C.3     1  UNL1        0.0473
     16 C          61.0151   80.9655   14.1137 C.3     1  UNL1        0.0001
     17 C          62.2497   80.2822   13.6049 C.3     1  UNL1        0.0038
@<TRIPOS>BOND
     1    16    17    1
     2    17    15    1
     3    15    14    1
     4    14    13    1
     5    13     1    1
     6     1     2   ar
     7     2     3   ar
     8     3     4   ar
     9     4     7    1
    10     7     8   ar
    11     8     9   ar
    12     9    10   ar
    13    10    11    1
    14    10    12   ar
    15     4     5   ar
    16     5     6   ar
    17     6     1   ar
    18    12     7   ar
@<TRIPOS>MOLECULE
*****
 17 18 0 0 0
SMALL
GASTEIGER

@<TRIPOS>ATOM
      1 C          61.8921   89.2404   11.4941 C.ar    1  UNL1        0.1386
      2 C          62.7990   89.4101   12.6767 C.ar    1  UNL1        0.0384
      3 C          63.8502   90.4801   12.6683 C.ar    1  UNL1        0.0207
      4 C          63.9946   91.3803   11.4773 C.ar    1  UNL1        0.0657
      5 C          63.0877   91.2106   10.2946 C.ar    1  UNL1        0.0207
      6 C          62.0365   90.1407   10.3030 C.ar    1  UNL1        0.0384
      7 N          65.0459   92.4503   11.4689 N.ar    1  UNL1       -0.2868
      8 C          65.8353   92.9200   12.6547 C.ar    1  UNL1        0.1825
      9 N          66.7696   93.9984   12.1919 N.ar    1  UNL1       -0.2280
     10 C          66.5576   94.1952   10.7201 C.ar    1  UNL1        0.0786
     11 C          67.2834   95.1764    9.8481 C.3     1  UNL1        0.0538
     12 C          65.4923   93.2384   10.2732 C.ar    1  UNL1        0.0962
     13 O          60.8409   88.1705   11.5025 O.3     1  UNL1       -0.4755
     14 C          60.8310   87.1203   10.4315 C.3     1  UNL1        0.2054
     15 C          62.1022   86.4163   10.0596 C.3     1  UNL1        0.0473
     16 C          62.6763   85.1643   12.2625 C.3     1  UNL1        0.0001
     17 C          62.4990   85.1579   10.7730 C.3     1  UNL1        0.0038
@<TRIPOS>BOND
     1    16    17    1
     2    17    15    1
     3    15    14    1
     4    14    13    1
     5    13     1    1
     6     1     2   ar
     7     2     3   ar
     8     3     4   ar
     9     4     7    1
    10     7     8   ar
    11     8     9   ar
    12     9    10   ar
    13    10    11    1
    14    10    12   ar
    15     4     5   ar
    16     5     6   ar
    17     6     1   ar
    18    12     7   ar
@<TRIPOS>MOLECULE
*****
 17 18 0 0 0
SMALL
GASTEIGER

@<TRIPOS>ATOM
      1 C          62.8555   89.6970   11.4193 C.ar    1  UNL1        0.1386
      2 C          63.1985   88.9865   12.6950 C.ar    1  UNL1        0.0384
      3 C          64.1110   89.6356   13.6930 C.ar    1  UNL1        0.0207
      4 C          64.6804   90.9953   13.4153 C.ar    1  UNL1        0.0657
      5 C          64.3373   91.7057   12.1396 C.ar    1  UNL1        0.0207
      6 C          63.4249   91.0566   11.1416 C.ar    1  UNL1        0.0384
      7 N          65.5928   91.6444   14.4133 N.ar    1  UNL1       -0.2868
      8 C          65.2148   92.0884   15.7953 C.ar    1  UNL1        0.1825
      9 N          66.4319   92.6820   16.4407 N.ar    1  UNL1       -0.2280
     10 C          67.5621   92.6048   15.4575 C.ar    1  UNL1        0.0786
     11 C          68.9647   93.0845   15.6870 C.3     1  UNL1        0.0538
     12 C          67.0436   91.9635   14.2046 C.ar    1  UNL1        0.0962
     13 O          61.9430   89.0478   10.4213 O.3     1  UNL1       -0.4755
     14 C          62.1814   87.6283    9.9994 C.3     1  UNL1        0.2054
     15 C          61.4478   86.5105   10.6794 C.3     1  UNL1        0.0473
     16 C          62.7462   85.0670   12.4059 C.3     1  UNL1        0.0001
     17 C          62.1706   85.2442   11.0321 C.3     1  UNL1        0.0038
@<TRIPOS>BOND
     1    16    17    1
     2    17    15    1
     3    15    14    1
     4    14    13    1
     5    13     1    1
     6     1     2   ar
     7     2     3   ar
     8     3     4   ar
     9     4     7    1
    10     7     8   ar
    11     8     9   ar
    12     9    10   ar
    13    10    11    1
    14    10    12   ar
    15     4     5   ar
    16     5     6   ar
    17     6     1   ar
    18    12     7   ar
@<TRIPOS>MOLECULE
*****
 17 18 0 0 0
SMALL
GASTEIGER

@<TRIPOS>ATOM
      1 C          64.4441   90.2299   13.6058 C.ar    1  UNL1        0.1386
      2 C          64.0479   88.7837   13.5672 C.ar    1  UNL1        0.0384
      3 C          63.1404   88.2834   12.4827 C.ar    1  UNL1        0.0207
      4 C          62.6291   89.2292   11.4368 C.ar    1  UNL1        0.0657
      5 C          63.0254   90.6754   11.4754 C.ar    1  UNL1        0.0207
      6 C          63.9328   91.1757   12.5599 C.ar    1  UNL1        0.0384
      7 N          61.7217   88.7288   10.3524 N.ar    1  UNL1       -0.2868
      8 C          60.6419   89.5174    9.6725 C.ar    1  UNL1        0.1825
      9 N          59.9875   88.6280    8.6573 N.ar    1  UNL1       -0.2280
     10 C          60.6628   87.2896    8.7097 C.ar    1  UNL1        0.0786
     11 C          60.3256   86.0981    7.8631 C.3     1  UNL1        0.0538
     12 C          61.7346   87.3520    9.7573 C.ar    1  UNL1        0.0962
     13 O          65.3516   90.7303   14.6902 O.3     1  UNL1       -0.4755
     14 C          65.9574   92.0988   14.5893 C.3     1  UNL1        0.2054
     15 C          66.6264   92.7128   15.7832 C.3     1  UNL1        0.0473
     16 C          69.0256   93.6909   15.9765 C.3     1  UNL1        0.0001
     17 C          68.0966   92.5135   16.0042 C.3     1  UNL1        0.0038
@<TRIPOS>BOND
     1    16    17    1
     2    17    15    1
     3    15    14    1
     4    14    13    1
     5    13     1    1
     6     1     2   ar
     7     2     3   ar
     8     3     4   ar
     9     4     7    1
    10     7     8   ar
    11     8     9   ar
    12     9    10   ar
    13    10    11    1
    14    10    12   ar
    15     4     5   ar
    16     5     6   ar
    17     6     1   ar
    18    12     7   ar
