@<TRIPOS>MOLECULE
*****
 42 45 0 0 0
SMALL
GASTEIGER

@<TRIPOS>ATOM
      1 C          60.6823   89.4624   10.8321 C.3     1  UNL1        0.1443
      2 O          59.9640   89.1220   12.1042 O.3     1  UNL1       -0.3813
      3 H          60.3137   89.6647   12.8281 H       1  UNL1        0.2105
      4 C          60.3247   88.7576    9.5572 C.3     1  UNL1        0.1041
      5 N          60.2371   89.5282    8.2733 N.am    1  UNL1       -0.3012
      6 C          59.3714   89.0273    7.1555 C.2     1  UNL1        0.2527
      7 O          58.5933   87.7556    7.3215 O.2     1  UNL1       -0.2724
      8 H          60.7477   90.3629    8.1643 H       1  UNL1        0.1495
      9 C          59.2837   89.7979    5.8716 C.3     1  UNL1        0.2269
     10 O          58.1598   90.7672    5.6538 O.3     1  UNL1       -0.3418
     11 C          58.3441   91.9339    4.7292 C.3     1  UNL1        0.1748
     12 C          60.0548   87.2822    9.5663 C.3     1  UNL1        0.0484
     13 C          62.7616   84.7853   11.0458 C.ar    1  UNL1        0.0413
     14 C          63.4778   84.3700    9.7950 C.ar    1  UNL1        0.0082
     15 C          63.0530   84.9254    8.4679 C.ar    1  UNL1        0.0003
     16 C          61.9120   85.8961    8.3917 C.ar    1  UNL1       -0.0042
     17 C          61.1958   86.3114    9.6425 C.ar    1  UNL1       -0.0198
     18 C          61.6206   85.7560   10.9696 C.ar    1  UNL1        0.0040
     19 C          64.0360   83.1189   15.0270 C.3     1  UNL1        0.0903
     20 C          63.6111   83.6744   13.6999 C.1     1  UNL1       -0.0854
     21 C          63.1864   84.2298   12.3729 C.1     1  UNL1       -0.0644
     22 C          61.7582   90.5077   10.8349 C.3     1  UNL1        0.1001
     23 N          63.1484   90.1518   11.2714 N.3     1  UNL1       -0.2928
     24 H          63.7841   90.5382   10.5735 H       1  UNL1        0.1236
     25 C          63.6518   90.6006   12.6113 C.3     1  UNL1        0.0849
     26 C          63.1624   89.9285   13.8599 C.3     1  UNL1        0.0604
     27 C          63.6658   90.3772   15.1997 C.3     1  UNL1        0.1363
     28 C          62.7089   89.2612   15.4983 C.3     1  UNL1        0.0402
     29 C          62.9736   89.4268   16.9655 C.3     1  UNL1        0.0072
     30 C          63.9305   90.5427   16.6669 C.3     1  UNL1        0.0402
     31 O          64.6585   91.4979   15.2910 O.3     1  UNL1       -0.4676
     32 C          65.1479   92.1699   14.0425 C.ar    1  UNL1        0.2216
     33 N          66.1408   93.2907   14.1339 N.ar    1  UNL1       -0.2107
     34 C          66.6302   93.9627   12.8853 C.ar    1  UNL1        0.0977
     35 C          66.1268   93.5140   11.5454 C.ar    1  UNL1       -0.0031
     36 C          65.1340   92.3933   11.4541 C.ar    1  UNL1       -0.0011
     37 C          64.6446   91.7213   12.7026 C.ar    1  UNL1        0.0449
     38 C          66.6162   94.1860   10.2969 C.3     1  UNL1        0.0279
     39 C          67.6236   93.5008    9.4219 C.3     1  UNL1        0.0041
     40 C          67.5109   94.6126    8.4214 C.3     1  UNL1        0.0003
     41 C          67.7364   92.3889   10.4225 C.3     1  UNL1        0.0003
     42 C          68.6310   92.8156    8.5469 C.3     1  UNL1        0.0003
@<TRIPOS>BOND
     1    19    20    1
     2    20    21    3
     3    21    13    1
     4    13    14   ar
     5    14    15   ar
     6    15    16   ar
     7    16    17   ar
     8    17    12    1
     9     4    12    1
    10     4     5    1
    11     5     6   am
    12     6     7    2
    13     6     9    1
    14     9    10    1
    15    10    11    1
    16     4     1    1
    17     1     2    1
    18     1    22    1
    19    22    23    1
    20    25    23    1
    21    25    26    1
    22    26    27    1
    23    27    28    1
    24    28    29    1
    25    29    30    1
    26    27    31    1
    27    31    32    1
    28    32    33   ar
    29    33    34   ar
    30    34    35   ar
    31    35    38    1
    32    38    39    1
    33    39    40    1
    34    39    41    1
    35    39    42    1
    36    35    36   ar
    37    36    37   ar
    38    17    18   ar
    39    18    13   ar
    40    37    25    1
    41    30    27    1
    42    37    32   ar
    43     5     8    1
    44     2     3    1
    45    23    24    1
@<TRIPOS>MOLECULE
*****
 42 45 0 0 0
SMALL
GASTEIGER

@<TRIPOS>ATOM
      1 C          60.6562   89.5433   10.8695 C.3     1  UNL1        0.1443
      2 O          59.9932   89.1481   12.1556 O.3     1  UNL1       -0.3813
      3 H          60.3210   89.7107   12.8746 H       1  UNL1        0.2105
      4 C          60.3191   88.8209    9.5989 C.3     1  UNL1        0.1041
      5 N          60.2703   89.5701    8.3004 N.am    1  UNL1       -0.3012
      6 C          59.4057   89.0733    7.1798 C.2     1  UNL1        0.2527
      7 O          58.5899   87.8271    7.3578 O.2     1  UNL1       -0.2724
      8 H          60.8057   90.3880    8.1836 H       1  UNL1        0.1495
      9 C          59.3570   89.8225    5.8813 C.3     1  UNL1        0.2269
     10 O          58.4054   90.9698    5.7126 O.3     1  UNL1       -0.3418
     11 C          58.7071   92.0551    4.7221 C.3     1  UNL1        0.1748
     12 C          60.0307   87.3491    9.6269 C.3     1  UNL1        0.0484
     13 C          62.7265   84.7704   10.9808 C.ar    1  UNL1        0.0413
     14 C          63.4225   84.3929    9.7068 C.ar    1  UNL1        0.0082
     15 C          62.9881   85.0009    8.4063 C.ar    1  UNL1        0.0003
     16 C          61.8575   85.9863    8.3796 C.ar    1  UNL1       -0.0042
     17 C          61.1614   86.3637    9.6536 C.ar    1  UNL1       -0.0198
     18 C          61.5959   85.7558   10.9542 C.ar    1  UNL1        0.0040
     19 C          64.0300   82.9464   14.8827 C.3     1  UNL1        0.0903
     20 C          63.5955   83.5544   13.5820 C.1     1  UNL1       -0.0854
     21 C          63.1610   84.1624   12.2814 C.1     1  UNL1       -0.0644
     22 C          61.6564   90.6612   10.8539 C.3     1  UNL1        0.1001
     23 N          63.1190   90.3609   10.9970 N.3     1  UNL1       -0.2928
     24 H          63.4801   90.2007   10.0566 H       1  UNL1        0.1236
     25 C          64.0299   91.3604   11.6462 C.3     1  UNL1        0.0849
     26 C          64.7228   92.3965   10.8116 C.3     1  UNL1        0.0604
     27 C          65.6336   93.3960   11.4607 C.3     1  UNL1        0.1363
     28 C          65.6627   93.7356    9.9999 C.3     1  UNL1        0.0402
     29 C          66.6135   94.8613   10.2805 C.3     1  UNL1        0.0072
     30 C          66.5844   94.5217   11.7413 C.3     1  UNL1        0.0402
     31 O          65.8517   93.3593   12.9443 O.3     1  UNL1       -0.4676
     32 C          65.1588   92.3232   13.7788 C.ar    1  UNL1        0.2216
     33 N          65.3769   92.2866   15.2625 N.ar    1  UNL1       -0.2107
     34 C          64.6840   91.2504   16.0970 C.ar    1  UNL1        0.0977
     35 C          63.7731   90.2509   15.4478 C.ar    1  UNL1       -0.0031
     36 C          63.5551   90.2876   13.9643 C.ar    1  UNL1       -0.0011
     37 C          64.2480   91.3237   13.1297 C.ar    1  UNL1        0.0449
     38 C          63.0803   89.2148   16.2824 C.3     1  UNL1        0.0279
     39 C          63.4938   87.7760   16.1873 C.3     1  UNL1        0.0041
     40 C          64.2437   88.0750   14.9231 C.3     1  UNL1        0.0003
     41 C          62.7439   87.4770   17.4516 C.3     1  UNL1        0.0003
     42 C          63.9073   86.3373   16.0923 C.3     1  UNL1        0.0003
@<TRIPOS>BOND
     1    19    20    1
     2    20    21    3
     3    21    13    1
     4    13    14   ar
     5    14    15   ar
     6    15    16   ar
     7    16    17   ar
     8    17    12    1
     9     4    12    1
    10     4     5    1
    11     5     6   am
    12     6     7    2
    13     6     9    1
    14     9    10    1
    15    10    11    1
    16     4     1    1
    17     1     2    1
    18     1    22    1
    19    22    23    1
    20    25    23    1
    21    25    26    1
    22    26    27    1
    23    27    28    1
    24    28    29    1
    25    29    30    1
    26    27    31    1
    27    31    32    1
    28    32    33   ar
    29    33    34   ar
    30    34    35   ar
    31    35    38    1
    32    38    39    1
    33    39    40    1
    34    39    41    1
    35    39    42    1
    36    35    36   ar
    37    36    37   ar
    38    17    18   ar
    39    18    13   ar
    40    37    25    1
    41    30    27    1
    42    37    32   ar
    43     5     8    1
    44     2     3    1
    45    23    24    1
@<TRIPOS>MOLECULE
*****
 42 45 0 0 0
SMALL
GASTEIGER

@<TRIPOS>ATOM
      1 C          60.5580   89.6389   11.7546 C.3     1  UNL1        0.1443
      2 O          59.4635   90.6561   11.8858 O.3     1  UNL1       -0.3813
      3 H          58.6424   90.2974   11.5141 H       1  UNL1        0.2105
      4 C          61.9364   89.9512   12.2571 C.3     1  UNL1        0.1041
      5 N          62.1682   90.1725   13.7225 N.am    1  UNL1       -0.3012
      6 C          63.1240   89.2923   14.4719 C.2     1  UNL1        0.2527
      7 O          63.8481   88.1908   13.7559 O.2     1  UNL1       -0.2724
      8 H          61.6930   90.8954   14.1924 H       1  UNL1        0.1495
      9 C          63.3559   89.5135   15.9372 C.3     1  UNL1        0.2269
     10 O          63.1678   90.8792   16.5285 O.3     1  UNL1       -0.3418
     11 C          64.2852   91.8786   16.4783 C.3     1  UNL1        0.1748
     12 C          63.0829   90.0423   11.2942 C.3     1  UNL1        0.0484
     13 C          65.9927   92.3259   12.7324 C.ar    1  UNL1        0.0413
     14 C          66.0765   93.3810   11.6695 C.ar    1  UNL1        0.0082
     15 C          65.1625   93.3233   10.4816 C.ar    1  UNL1        0.0003
     16 C          64.1646   92.2104   10.3565 C.ar    1  UNL1       -0.0042
     17 C          64.0808   91.1553   11.4194 C.ar    1  UNL1       -0.0198
     18 C          64.9948   91.2130   12.6073 C.ar    1  UNL1        0.0040
     19 C          68.7349   92.4992   16.2962 C.3     1  UNL1        0.0903
     20 C          67.8208   92.4414   15.1082 C.1     1  UNL1       -0.0854
     21 C          66.9068   92.3837   13.9203 C.1     1  UNL1       -0.0644
     22 C          60.2741   88.3092   11.1209 C.3     1  UNL1        0.1001
     23 N          60.9442   87.0722   11.6411 N.3     1  UNL1       -0.2928
     24 H          60.2287   86.5321   12.1277 H       1  UNL1        0.1236
     25 C          61.6249   86.1319   10.6909 C.3     1  UNL1        0.0849
     26 C          61.2700   86.1511    9.2337 C.3     1  UNL1        0.0604
     27 C          61.9506   85.2110    8.2835 C.3     1  UNL1        0.1363
     28 C          60.9989   86.0000    7.4339 C.3     1  UNL1        0.0402
     29 C          61.4486   85.2380    6.2226 C.3     1  UNL1        0.0072
     30 C          62.4003   84.4490    7.0722 C.3     1  UNL1        0.0402
     31 O          62.9862   84.2517    8.7907 O.3     1  UNL1       -0.4676
     32 C          63.3412   84.2325   10.2479 C.ar    1  UNL1        0.2216
     33 N          64.3769   83.2732   10.7551 N.ar    1  UNL1       -0.2107
     34 C          64.7318   83.2540   12.2123 C.ar    1  UNL1        0.0977
     35 C          64.0511   84.1942   13.1625 C.ar    1  UNL1       -0.0031
     36 C          63.0155   85.1535   12.6553 C.ar    1  UNL1       -0.0011
     37 C          62.6605   85.1727   11.1981 C.ar    1  UNL1        0.0449
     38 C          64.4060   84.1751   14.6198 C.3     1  UNL1        0.0279
     39 C          63.4375   84.7062   15.6346 C.3     1  UNL1        0.0041
     40 C          62.5500   83.5182   15.4093 C.3     1  UNL1        0.0003
     41 C          64.3251   85.8943   15.8599 C.3     1  UNL1        0.0003
     42 C          62.4690   85.2373   16.6494 C.3     1  UNL1        0.0003
@<TRIPOS>BOND
     1    19    20    1
     2    20    21    3
     3    21    13    1
     4    13    14   ar
     5    14    15   ar
     6    15    16   ar
     7    16    17   ar
     8    17    12    1
     9     4    12    1
    10     4     5    1
    11     5     6   am
    12     6     7    2
    13     6     9    1
    14     9    10    1
    15    10    11    1
    16     4     1    1
    17     1     2    1
    18     1    22    1
    19    22    23    1
    20    25    23    1
    21    25    26    1
    22    26    27    1
    23    27    28    1
    24    28    29    1
    25    29    30    1
    26    27    31    1
    27    31    32    1
    28    32    33   ar
    29    33    34   ar
    30    34    35   ar
    31    35    38    1
    32    38    39    1
    33    39    40    1
    34    39    41    1
    35    39    42    1
    36    35    36   ar
    37    36    37   ar
    38    17    18   ar
    39    18    13   ar
    40    37    25    1
    41    30    27    1
    42    37    32   ar
    43     5     8    1
    44     2     3    1
    45    23    24    1
@<TRIPOS>MOLECULE
*****
 42 45 0 0 0
SMALL
GASTEIGER

@<TRIPOS>ATOM
      1 C          59.9948   89.0962   10.7118 C.3     1  UNL1        0.1443
      2 O          59.3219   90.1557   11.5333 O.3     1  UNL1       -0.3813
      3 H          58.7618   89.7367   12.2052 H       1  UNL1        0.2105
      4 C          60.9209   89.4860    9.5981 C.3     1  UNL1        0.1041
      5 N          60.3681   90.0773    8.3352 N.am    1  UNL1       -0.3012
      6 C          59.4775   89.2567    7.4501 C.2     1  UNL1        0.2527
      7 O          59.1397   87.8448    7.8278 O.2     1  UNL1       -0.2724
      8 H          60.5898   91.0039    8.0873 H       1  UNL1        0.1495
      9 C          58.9247   89.8480    6.1872 C.3     1  UNL1        0.2269
     10 O          59.7724   90.7626    5.3535 O.3     1  UNL1       -0.3418
     11 C          59.1561   91.9576    4.6886 C.3     1  UNL1        0.1748
     12 C          62.3997   89.2845    9.7473 C.3     1  UNL1        0.0484
     13 C          64.6089   92.0272   11.5768 C.ar    1  UNL1        0.0413
     14 C          64.6548   91.4715   12.9693 C.ar    1  UNL1        0.0082
     15 C          63.9491   90.1868   13.2878 C.ar    1  UNL1        0.0003
     16 C          63.1974   89.4579   12.2138 C.ar    1  UNL1       -0.0042
     17 C          63.1515   90.0136   10.8213 C.ar    1  UNL1       -0.0198
     18 C          63.8572   91.2983   10.5028 C.ar    1  UNL1        0.0040
     19 C          66.7262   95.8814   10.6214 C.3     1  UNL1        0.0903
     20 C          66.0204   94.5967   10.9399 C.1     1  UNL1       -0.0854
     21 C          65.3147   93.3120   11.2584 C.1     1  UNL1       -0.0644
     22 C          59.7415   87.6469   11.0041 C.3     1  UNL1        0.1001
     23 N          60.8302   86.7990   11.5922 N.3     1  UNL1       -0.2928
     24 H          60.3924   86.2036   12.2952 H       1  UNL1        0.1236
     25 C          61.6412   85.8996   10.7072 C.3     1  UNL1        0.0849
     26 C          61.4006   85.8888    9.2266 C.3     1  UNL1        0.0604
     27 C          62.2115   84.9894    8.3416 C.3     1  UNL1        0.1363
     28 C          61.2810   85.7117    7.4129 C.3     1  UNL1        0.0402
     29 C          61.8713   84.9741    6.2477 C.3     1  UNL1        0.0072
     30 C          62.8018   84.2517    7.1764 C.3     1  UNL1        0.0402
     31 O          63.2631   84.1008    8.9370 O.3     1  UNL1       -0.4676
     32 C          63.5036   84.1116   10.4176 C.ar    1  UNL1        0.2216
     33 N          64.5552   83.2229   11.0130 N.ar    1  UNL1       -0.2107
     34 C          64.7958   83.2337   12.4936 C.ar    1  UNL1        0.0977
     35 C          63.9848   84.1332   13.3787 C.ar    1  UNL1       -0.0031
     36 C          62.9333   85.0218   12.7832 C.ar    1  UNL1       -0.0011
     37 C          62.6927   85.0110   11.3026 C.ar    1  UNL1        0.0449
     38 C          64.2254   84.1440   14.8592 C.3     1  UNL1        0.0279
     39 C          63.8073   85.3290   15.6784 C.3     1  UNL1        0.0041
     40 C          64.9915   86.0973   15.1712 C.3     1  UNL1        0.0003
     41 C          62.6230   84.5606   16.1855 C.3     1  UNL1        0.0003
     42 C          63.3892   86.5140   16.4974 C.3     1  UNL1        0.0003
@<TRIPOS>BOND
     1    19    20    1
     2    20    21    3
     3    21    13    1
     4    13    14   ar
     5    14    15   ar
     6    15    16   ar
     7    16    17   ar
     8    17    12    1
     9     4    12    1
    10     4     5    1
    11     5     6   am
    12     6     7    2
    13     6     9    1
    14     9    10    1
    15    10    11    1
    16     4     1    1
    17     1     2    1
    18     1    22    1
    19    22    23    1
    20    25    23    1
    21    25    26    1
    22    26    27    1
    23    27    28    1
    24    28    29    1
    25    29    30    1
    26    27    31    1
    27    31    32    1
    28    32    33   ar
    29    33    34   ar
    30    34    35   ar
    31    35    38    1
    32    38    39    1
    33    39    40    1
    34    39    41    1
    35    39    42    1
    36    35    36   ar
    37    36    37   ar
    38    17    18   ar
    39    18    13   ar
    40    37    25    1
    41    30    27    1
    42    37    32   ar
    43     5     8    1
    44     2     3    1
    45    23    24    1
@<TRIPOS>MOLECULE
*****
 42 45 0 0 0
SMALL
GASTEIGER

@<TRIPOS>ATOM
      1 C          60.0125   88.9909   10.6216 C.3     1  UNL1        0.1443
      2 O          59.3000   89.9750   11.5013 O.3     1  UNL1       -0.3813
      3 H          58.7612   89.4970   12.1510 H       1  UNL1        0.2105
      4 C          60.9159   89.4791    9.5283 C.3     1  UNL1        0.1041
      5 N          60.3308   90.0637    8.2769 N.am    1  UNL1       -0.3012
      6 C          59.4363   89.2311    7.4072 C.2     1  UNL1        0.2527
      7 O          59.1269   87.8138    7.7888 O.2     1  UNL1       -0.2724
      8 H          60.5339   90.9940    8.0265 H       1  UNL1        0.1495
      9 C          58.8512   89.8157    6.1558 C.3     1  UNL1        0.2269
     10 O          59.6703   90.7421    5.3066 O.3     1  UNL1       -0.3418
     11 C          59.0314   91.9445    4.6774 C.3     1  UNL1        0.1748
     12 C          62.4044   89.3828    9.6863 C.3     1  UNL1        0.0484
     13 C          63.5912   90.1674   13.3912 C.ar    1  UNL1        0.0413
     14 C          64.4322   91.3890   13.1667 C.ar    1  UNL1        0.0082
     15 C          64.5973   91.9419   11.7821 C.ar    1  UNL1        0.0003
     16 C          63.9213   91.2731   10.6220 C.ar    1  UNL1       -0.0042
     17 C          63.0803   90.0515   10.8465 C.ar    1  UNL1       -0.0198
     18 C          62.9153   89.4987   12.2311 C.ar    1  UNL1        0.0040
     19 C          63.0960   88.5089   17.5450 C.3     1  UNL1        0.0903
     20 C          63.2611   89.0617   16.1604 C.1     1  UNL1       -0.0854
     21 C          63.4261   89.6146   14.7758 C.1     1  UNL1       -0.0644
     22 C          59.8215   87.5185   10.8353 C.3     1  UNL1        0.1001
     23 N          60.9534   86.6832   11.3561 N.3     1  UNL1       -0.2928
     24 H          60.5655   86.0821   12.0831 H       1  UNL1        0.1236
     25 C          61.7206   85.7941   10.4228 C.3     1  UNL1        0.0849
     26 C          61.4233   85.8154    8.9527 C.3     1  UNL1        0.0604
     27 C          62.1904   84.9263    8.0194 C.3     1  UNL1        0.1363
     28 C          61.2324   85.6760    7.1417 C.3     1  UNL1        0.0402
     29 C          61.7699   84.9564    5.9403 C.3     1  UNL1        0.0072
     30 C          62.7279   84.2067    6.8180 C.3     1  UNL1        0.0402
     31 O          63.2548   84.0160    8.5563 O.3     1  UNL1       -0.4676
     32 C          63.5521   83.9947   10.0263 C.ar    1  UNL1        0.2216
     33 N          64.6166   83.0843   10.5631 N.ar    1  UNL1       -0.2107
     34 C          64.9140   83.0630   12.0332 C.ar    1  UNL1        0.0977
     35 C          64.1468   83.9522   12.9665 C.ar    1  UNL1       -0.0031
     36 C          63.0823   84.8625   12.4297 C.ar    1  UNL1       -0.0011
     37 C          62.7850   84.8838   10.9596 C.ar    1  UNL1        0.0449
     38 C          64.4441   83.9309   14.4366 C.3     1  UNL1        0.0279
     39 C          63.4606   84.5116   15.4091 C.3     1  UNL1        0.0041
     40 C          62.5952   83.2955   15.2601 C.3     1  UNL1        0.0003
     41 C          64.3261   85.7277   15.5582 C.3     1  UNL1        0.0003
     42 C          62.4773   85.0922   16.3816 C.3     1  UNL1        0.0003
@<TRIPOS>BOND
     1    19    20    1
     2    20    21    3
     3    21    13    1
     4    13    14   ar
     5    14    15   ar
     6    15    16   ar
     7    16    17   ar
     8    17    12    1
     9     4    12    1
    10     4     5    1
    11     5     6   am
    12     6     7    2
    13     6     9    1
    14     9    10    1
    15    10    11    1
    16     4     1    1
    17     1     2    1
    18     1    22    1
    19    22    23    1
    20    25    23    1
    21    25    26    1
    22    26    27    1
    23    27    28    1
    24    28    29    1
    25    29    30    1
    26    27    31    1
    27    31    32    1
    28    32    33   ar
    29    33    34   ar
    30    34    35   ar
    31    35    38    1
    32    38    39    1
    33    39    40    1
    34    39    41    1
    35    39    42    1
    36    35    36   ar
    37    36    37   ar
    38    17    18   ar
    39    18    13   ar
    40    37    25    1
    41    30    27    1
    42    37    32   ar
    43     5     8    1
    44     2     3    1
    45    23    24    1
@<TRIPOS>MOLECULE
*****
 42 45 0 0 0
SMALL
GASTEIGER

@<TRIPOS>ATOM
      1 C          64.1318   85.7018   14.8730 C.3     1  UNL1        0.1443
      2 O          64.3535   85.1692   16.2577 O.3     1  UNL1       -0.3813
      3 H          64.7908   85.8456   16.7981 H       1  UNL1        0.2105
      4 C          63.4677   84.8442   13.8370 C.3     1  UNL1        0.1041
      5 N          63.9448   83.4408   13.6070 N.am    1  UNL1       -0.3012
      6 C          63.0722   82.2807   13.9848 C.2     1  UNL1        0.2527
      7 O          61.7225   82.5240   14.5926 O.2     1  UNL1       -0.2724
      8 H          64.8306   83.2811   13.2082 H       1  UNL1        0.1495
      9 C          63.5492   80.8773   13.7549 C.3     1  UNL1        0.2269
     10 O          63.0226   80.0869   12.5938 O.3     1  UNL1       -0.3418
     11 C          62.8560   80.7417   11.2546 C.3     1  UNL1        0.1748
     12 C          62.3266   85.3900   13.0309 C.3     1  UNL1        0.0484
     13 C          61.6024   86.3021    9.2370 C.ar    1  UNL1        0.0413
     14 C          62.5261   85.3509    8.5355 C.ar    1  UNL1        0.0082
     15 C          63.3832   84.4127    9.3324 C.ar    1  UNL1        0.0003
     16 C          63.3167   84.4258   10.8308 C.ar    1  UNL1       -0.0042
     17 C          62.3931   85.3770   11.5323 C.ar    1  UNL1       -0.0198
     18 C          61.5359   86.3151   10.7354 C.ar    1  UNL1        0.0040
     19 C          59.0310   89.1166    6.8460 C.3     1  UNL1        0.0903
     20 C          59.8881   88.1784    7.6430 C.1     1  UNL1       -0.0854
     21 C          60.7453   87.2403    8.4399 C.1     1  UNL1       -0.0644
     22 C          64.5743   87.0921   14.5245 C.3     1  UNL1        0.1001
     23 N          63.6561   88.2536   14.7643 N.3     1  UNL1       -0.2928
     24 H          64.0134   88.7474   15.5822 H       1  UNL1        0.1236
     25 C          63.4525   89.2826   13.6919 C.3     1  UNL1        0.0849
     26 C          62.2341   89.2252   12.8190 C.3     1  UNL1        0.0604
     27 C          62.0305   90.2541   11.7467 C.3     1  UNL1        0.1363
     28 C          60.8376   89.3499   11.6486 C.3     1  UNL1        0.0402
     29 C          60.3072   90.1729   10.5122 C.3     1  UNL1        0.0072
     30 C          61.5001   91.0771   10.6103 C.3     1  UNL1        0.0402
     31 O          63.0454   91.3404   11.5474 O.3     1  UNL1       -0.4676
     32 C          64.2638   91.3979   12.4203 C.ar    1  UNL1        0.2216
     33 N          65.2788   92.4843   12.2209 N.ar    1  UNL1       -0.2107
     34 C          66.4973   92.5417   13.0938 C.ar    1  UNL1        0.0977
     35 C          66.7008   91.5128   14.1661 C.ar    1  UNL1       -0.0031
     36 C          65.6859   90.4264   14.3655 C.ar    1  UNL1       -0.0011
     37 C          64.4674   90.3690   13.4926 C.ar    1  UNL1        0.0449
     38 C          67.9193   91.5702   15.0390 C.3     1  UNL1        0.0279
     39 C          68.4041   92.8890   15.5643 C.3     1  UNL1        0.0041
     40 C          67.1542   93.0224   16.3828 C.3     1  UNL1        0.0003
     41 C          69.6541   92.7555   14.7458 C.3     1  UNL1        0.0003
     42 C          68.8888   94.2077   16.0896 C.3     1  UNL1        0.0003
@<TRIPOS>BOND
     1    19    20    1
     2    20    21    3
     3    21    13    1
     4    13    14   ar
     5    14    15   ar
     6    15    16   ar
     7    16    17   ar
     8    17    12    1
     9     4    12    1
    10     4     5    1
    11     5     6   am
    12     6     7    2
    13     6     9    1
    14     9    10    1
    15    10    11    1
    16     4     1    1
    17     1     2    1
    18     1    22    1
    19    22    23    1
    20    25    23    1
    21    25    26    1
    22    26    27    1
    23    27    28    1
    24    28    29    1
    25    29    30    1
    26    27    31    1
    27    31    32    1
    28    32    33   ar
    29    33    34   ar
    30    34    35   ar
    31    35    38    1
    32    38    39    1
    33    39    40    1
    34    39    41    1
    35    39    42    1
    36    35    36   ar
    37    36    37   ar
    38    17    18   ar
    39    18    13   ar
    40    37    25    1
    41    30    27    1
    42    37    32   ar
    43     5     8    1
    44     2     3    1
    45    23    24    1
@<TRIPOS>MOLECULE
*****
 42 45 0 0 0
SMALL
GASTEIGER

@<TRIPOS>ATOM
      1 C          60.6294   88.5405   11.3585 C.3     1  UNL1        0.1443
      2 O          59.3585   88.3519   12.1327 O.3     1  UNL1       -0.3813
      3 H          59.0217   89.2160   12.4168 H       1  UNL1        0.2105
      4 C          61.3541   87.3496   10.8049 C.3     1  UNL1        0.1041
      5 N          60.7124   86.5087    9.7414 N.am    1  UNL1       -0.3012
      6 C          60.1849   87.1521    8.4933 C.2     1  UNL1        0.2527
      7 O          60.2991   88.6363    8.3087 O.2     1  UNL1       -0.2724
      8 H          60.6374   85.5346    9.8625 H       1  UNL1        0.1495
      9 C          59.5431   86.3112    7.4297 C.3     1  UNL1        0.2269
     10 O          60.1733   85.0139    7.0173 O.3     1  UNL1       -0.3418
     11 C          61.6265   84.9699    6.6483 C.3     1  UNL1        0.1748
     12 C          62.7206   86.9995   11.3149 C.3     1  UNL1        0.0484
     13 C          63.0881   83.0986   11.9456 C.ar    1  UNL1        0.0413
     14 C          63.4029   83.0770   13.4120 C.ar    1  UNL1        0.0082
     15 C          63.4904   84.3628   14.1794 C.ar    1  UNL1        0.0003
     16 C          63.2629   85.6703   13.4804 C.ar    1  UNL1       -0.0042
     17 C          62.9480   85.6920   12.0140 C.ar    1  UNL1       -0.0198
     18 C          62.8606   84.4061   11.2466 C.ar    1  UNL1        0.0040
     19 C          62.8258   79.2409    9.6435 C.3     1  UNL1        0.0903
     20 C          62.9132   80.5268   10.4109 C.1     1  UNL1       -0.0854
     21 C          63.0007   81.8127   11.1782 C.1     1  UNL1       -0.0644
     22 C          61.1754   89.9201   11.1379 C.3     1  UNL1        0.1001
     23 N          62.6574   90.1514   11.1534 N.3     1  UNL1       -0.2928
     24 H          62.8530   90.8549   10.4412 H       1  UNL1        0.1236
     25 C          63.3317   90.6106   12.4122 C.3     1  UNL1        0.0849
     26 C          62.9567   89.9993   13.7297 C.3     1  UNL1        0.0604
     27 C          63.6310   90.4583   14.9885 C.3     1  UNL1        0.1363
     28 C          62.6622   89.4016   15.4302 C.3     1  UNL1        0.0402
     29 C          63.1007   89.5938   16.8518 C.3     1  UNL1        0.0072
     30 C          64.0695   90.6505   16.4101 C.3     1  UNL1        0.0402
     31 O          64.6801   91.5287   14.9298 O.3     1  UNL1       -0.4676
     32 C          65.0550   92.1401   13.6124 C.ar    1  UNL1        0.2216
     33 N          66.1042   93.2105   13.5537 N.ar    1  UNL1       -0.2107
     34 C          66.4791   93.8219   12.2363 C.ar    1  UNL1        0.0977
     35 C          65.8048   93.3627   10.9774 C.ar    1  UNL1       -0.0031
     36 C          64.7557   92.2923   11.0361 C.ar    1  UNL1       -0.0011
     37 C          64.3808   91.6810   12.3536 C.ar    1  UNL1        0.0449
     38 C          66.1798   93.9740    9.6600 C.3     1  UNL1        0.0279
     39 C          66.5915   95.4148    9.5918 C.3     1  UNL1        0.0041
     40 C          67.8935   95.0130    8.9647 C.3     1  UNL1        0.0003
     41 C          65.2894   95.8166   10.2189 C.3     1  UNL1        0.0003
     42 C          67.0033   96.8556    9.5236 C.3     1  UNL1        0.0003
@<TRIPOS>BOND
     1    19    20    1
     2    20    21    3
     3    21    13    1
     4    13    14   ar
     5    14    15   ar
     6    15    16   ar
     7    16    17   ar
     8    17    12    1
     9     4    12    1
    10     4     5    1
    11     5     6   am
    12     6     7    2
    13     6     9    1
    14     9    10    1
    15    10    11    1
    16     4     1    1
    17     1     2    1
    18     1    22    1
    19    22    23    1
    20    25    23    1
    21    25    26    1
    22    26    27    1
    23    27    28    1
    24    28    29    1
    25    29    30    1
    26    27    31    1
    27    31    32    1
    28    32    33   ar
    29    33    34   ar
    30    34    35   ar
    31    35    38    1
    32    38    39    1
    33    39    40    1
    34    39    41    1
    35    39    42    1
    36    35    36   ar
    37    36    37   ar
    38    17    18   ar
    39    18    13   ar
    40    37    25    1
    41    30    27    1
    42    37    32   ar
    43     5     8    1
    44     2     3    1
    45    23    24    1
@<TRIPOS>MOLECULE
*****
 42 45 0 0 0
SMALL
GASTEIGER

@<TRIPOS>ATOM
      1 C          63.4373   86.9742   15.7928 C.3     1  UNL1        0.1443
      2 O          62.5475   86.2990   16.7940 O.3     1  UNL1       -0.3813
      3 H          62.3109   86.9288   17.4929 H       1  UNL1        0.2105
      4 C          63.9457   86.2106   14.6061 C.3     1  UNL1        0.1041
      5 N          63.8686   86.8157   13.2357 N.am    1  UNL1       -0.3012
      6 C          62.7874   86.3895   12.2875 C.2     1  UNL1        0.2527
      7 O          61.7831   85.3582   12.7096 O.2     1  UNL1       -0.2724
      8 H          64.5277   87.4925   12.9587 H       1  UNL1        0.1495
      9 C          62.7102   86.9946   10.9171 C.3     1  UNL1        0.2269
     10 O          62.3539   86.1383    9.7381 O.3     1  UNL1       -0.3418
     11 C          63.0576   84.8316    9.5203 C.3     1  UNL1        0.1748
     12 C          64.5313   84.8419   14.7898 C.3     1  UNL1        0.0484
     13 C          62.3403   81.8005   13.4862 C.ar    1  UNL1        0.0413
     14 C          63.0934   81.4195   12.2463 C.ar    1  UNL1        0.0082
     15 C          64.3259   82.1793   11.8541 C.ar    1  UNL1        0.0003
     16 C          64.8051   83.3200   12.7019 C.ar    1  UNL1       -0.0042
     17 C          64.0520   83.7011   13.9419 C.ar    1  UNL1       -0.0198
     18 C          62.8195   82.9413   14.3341 C.ar    1  UNL1        0.0040
     19 C          58.6429   79.5211   14.6626 C.3     1  UNL1        0.0903
     20 C          59.8754   80.2809   14.2704 C.1     1  UNL1       -0.0854
     21 C          61.1078   81.0407   13.8784 C.1     1  UNL1       -0.0644
     22 C          63.8186   88.4131   15.9784 C.3     1  UNL1        0.1001
     23 N          63.2120   89.4687   15.1024 N.3     1  UNL1       -0.2928
     24 H          62.7085   90.1081   15.7173 H       1  UNL1        0.1236
     25 C          64.0902   90.3121   14.2262 C.3     1  UNL1        0.0849
     26 C          65.4056   90.8139   14.7438 C.3     1  UNL1        0.0604
     27 C          66.2838   91.6573   13.8678 C.3     1  UNL1        0.1363
     28 C          67.0339   91.5284   15.1604 C.3     1  UNL1        0.0402
     29 C          68.1442   92.3670   14.5997 C.3     1  UNL1        0.0072
     30 C          67.3940   92.4959   13.3071 C.3     1  UNL1        0.0402
     31 O          65.8466   91.9988   12.4742 O.3     1  UNL1       -0.4676
     32 C          64.5312   91.4970   11.9566 C.ar    1  UNL1        0.2216
     33 N          64.0940   91.8385   10.5629 N.ar    1  UNL1       -0.2107
     34 C          62.7786   91.3367   10.0454 C.ar    1  UNL1        0.0977
     35 C          61.9004   90.4933   10.9215 C.ar    1  UNL1       -0.0031
     36 C          62.3376   90.1518   12.3151 C.ar    1  UNL1       -0.0011
     37 C          63.6530   90.6536   12.8326 C.ar    1  UNL1        0.0449
     38 C          60.5850   89.9915   10.4039 C.3     1  UNL1        0.0279
     39 C          59.5051   89.5897   11.3644 C.3     1  UNL1        0.0041
     40 C          59.2006   91.0349   11.6266 C.3     1  UNL1        0.0003
     41 C          59.8096   88.1445   11.1022 C.3     1  UNL1        0.0003
     42 C          58.4252   89.1880   12.3249 C.3     1  UNL1        0.0003
@<TRIPOS>BOND
     1    19    20    1
     2    20    21    3
     3    21    13    1
     4    13    14   ar
     5    14    15   ar
     6    15    16   ar
     7    16    17   ar
     8    17    12    1
     9     4    12    1
    10     4     5    1
    11     5     6   am
    12     6     7    2
    13     6     9    1
    14     9    10    1
    15    10    11    1
    16     4     1    1
    17     1     2    1
    18     1    22    1
    19    22    23    1
    20    25    23    1
    21    25    26    1
    22    26    27    1
    23    27    28    1
    24    28    29    1
    25    29    30    1
    26    27    31    1
    27    31    32    1
    28    32    33   ar
    29    33    34   ar
    30    34    35   ar
    31    35    38    1
    32    38    39    1
    33    39    40    1
    34    39    41    1
    35    39    42    1
    36    35    36   ar
    37    36    37   ar
    38    17    18   ar
    39    18    13   ar
    40    37    25    1
    41    30    27    1
    42    37    32   ar
    43     5     8    1
    44     2     3    1
    45    23    24    1
@<TRIPOS>MOLECULE
*****
 42 45 0 0 0
SMALL
GASTEIGER

@<TRIPOS>ATOM
      1 C          63.5972   87.5787   15.4424 C.3     1  UNL1        0.1443
      2 O          63.0184   87.2349   16.7829 O.3     1  UNL1       -0.3813
      3 H          62.8821   88.0477   17.2943 H       1  UNL1        0.2105
      4 C          63.9031   86.4907   14.4562 C.3     1  UNL1        0.1041
      5 N          63.8353   86.7718   12.9843 N.am    1  UNL1       -0.3012
      6 C          62.7091   86.2142   12.1654 C.2     1  UNL1        0.2527
      7 O          61.6507   85.3754   12.8182 O.2     1  UNL1       -0.2724
      8 H          64.5299   87.3224   12.5558 H       1  UNL1        0.1495
      9 C          62.6413   86.4953   10.6935 C.3     1  UNL1        0.2269
     10 O          62.3238   85.3883    9.7323 O.3     1  UNL1       -0.3418
     11 C          63.0147   85.3287    8.4022 C.3     1  UNL1        0.1748
     12 C          64.2768   85.1216   14.9418 C.3     1  UNL1        0.0484
     13 C          62.3387   81.9130   13.6385 C.ar    1  UNL1        0.0413
     14 C          63.2147   81.4983   12.4937 C.ar    1  UNL1        0.0082
     15 C          64.4447   82.2913   12.1649 C.ar    1  UNL1        0.0003
     16 C          64.7987   83.4991   12.9809 C.ar    1  UNL1       -0.0042
     17 C          63.9227   83.9138   14.1258 C.ar    1  UNL1       -0.0198
     18 C          62.6927   83.1207   14.4546 C.ar    1  UNL1        0.0040
     19 C          58.6487   79.5335   14.6249 C.3     1  UNL1        0.0903
     20 C          59.8787   80.3267   14.2961 C.1     1  UNL1       -0.0854
     21 C          61.1087   81.1198   13.9674 C.1     1  UNL1       -0.0644
     22 C          63.8701   89.0105   15.0882 C.3     1  UNL1        0.1001
     23 N          62.7613   89.8805   14.5747 N.3     1  UNL1       -0.2928
     24 H          62.8406   90.7749   15.0588 H       1  UNL1        0.1236
     25 C          62.6664   90.1880   13.1096 C.3     1  UNL1        0.0849
     26 C          61.5856   89.5606   12.2801 C.3     1  UNL1        0.0604
     27 C          61.4907   89.8680   10.8150 C.3     1  UNL1        0.1363
     28 C          60.3626   88.9172   11.0860 C.3     1  UNL1        0.0402
     29 C          59.9621   88.9807    9.6418 C.3     1  UNL1        0.0072
     30 C          61.0902   89.9316    9.3708 C.3     1  UNL1        0.0402
     31 O          62.4766   90.8029   10.1795 O.3     1  UNL1       -0.4676
     32 C          63.5575   91.4303   11.0090 C.ar    1  UNL1        0.2216
     33 N          64.5435   92.3652   10.3734 N.ar    1  UNL1       -0.2107
     34 C          65.6243   92.9926   11.2030 C.ar    1  UNL1        0.0977
     35 C          65.7192   92.6851   12.6681 C.ar    1  UNL1       -0.0031
     36 C          64.7332   91.7503   13.3036 C.ar    1  UNL1       -0.0011
     37 C          63.6524   91.1228   12.4741 C.ar    1  UNL1        0.0449
     38 C          66.8000   93.3125   13.4976 C.3     1  UNL1        0.0279
     39 C          67.5406   92.4905   14.5106 C.3     1  UNL1        0.0041
     40 C          66.8323   93.2152   15.6164 C.3     1  UNL1        0.0003
     41 C          68.2489   91.7658   13.4046 C.3     1  UNL1        0.0003
     42 C          68.2811   91.6686   15.5235 C.3     1  UNL1        0.0003
@<TRIPOS>BOND
     1    19    20    1
     2    20    21    3
     3    21    13    1
     4    13    14   ar
     5    14    15   ar
     6    15    16   ar
     7    16    17   ar
     8    17    12    1
     9     4    12    1
    10     4     5    1
    11     5     6   am
    12     6     7    2
    13     6     9    1
    14     9    10    1
    15    10    11    1
    16     4     1    1
    17     1     2    1
    18     1    22    1
    19    22    23    1
    20    25    23    1
    21    25    26    1
    22    26    27    1
    23    27    28    1
    24    28    29    1
    25    29    30    1
    26    27    31    1
    27    31    32    1
    28    32    33   ar
    29    33    34   ar
    30    34    35   ar
    31    35    38    1
    32    38    39    1
    33    39    40    1
    34    39    41    1
    35    39    42    1
    36    35    36   ar
    37    36    37   ar
    38    17    18   ar
    39    18    13   ar
    40    37    25    1
    41    30    27    1
    42    37    32   ar
    43     5     8    1
    44     2     3    1
    45    23    24    1
