@<TRIPOS>MOLECULE
*****
 15 16 0 0 0
SMALL
GASTEIGER

@<TRIPOS>ATOM
      1 C          65.1668   91.4513   14.4430 C.3     1  UNL1        0.1311
      2 C          66.6198   91.3421   14.7991 C.3     1  UNL1        0.0338
      3 C          67.4168   91.9602   13.6889 C.3     1  UNL1        0.0367
      4 C          66.4564   92.4514   12.6466 C.3     1  UNL1        0.1389
      5 O          65.0658   92.1369   13.1127 O.3     1  UNL1       -0.3529
      6 C          66.8224   93.1369   11.3635 C.ar    1  UNL1        0.0237
      7 C          67.6606   92.4234   10.3446 C.ar    1  UNL1        0.0012
      8 C          68.0266   93.1088    9.0616 C.ar    1  UNL1        0.0204
      9 C          67.5542   94.5078    8.7974 C.ar    1  UNL1        0.0989
     10 N          66.7159   95.2213    9.8163 N.ar    1  UNL1       -0.2426
     11 C          66.3500   94.5359   11.0993 C.ar    1  UNL1        0.0969
     12 N          63.6207   91.6987   16.5163 N.3     1  UNL1       -0.3191
     13 C          64.0166   90.9609   15.2717 C.3     1  UNL1        0.0951
     14 H          62.8261   91.2298   16.9512 H       1  UNL1        0.1189
     15 H          63.3612   92.6555   16.2763 H       1  UNL1        0.1189
@<TRIPOS>BOND
     1    12    13    1
     2     1    13    1
     3     1     2    1
     4     2     3    1
     5     3     4    1
     6     4     6    1
     7     6     7   ar
     8     7     8   ar
     9     8     9   ar
    10     9    10   ar
    11    10    11   ar
    12     4     5    1
    13     5     1    1
    14    11     6   ar
    15    12    14    1
    16    12    15    1
@<TRIPOS>MOLECULE
*****
 15 16 0 0 0
SMALL
GASTEIGER

@<TRIPOS>ATOM
      1 C          60.4969   87.2844    9.0764 C.3     1  UNL1        0.1311
      2 C          61.2583   88.2105    9.9780 C.3     1  UNL1        0.0338
      3 C          62.2020   87.3843   10.8007 C.3     1  UNL1        0.0367
      4 C          62.0238   85.9477   10.4076 C.3     1  UNL1        0.1389
      5 O          60.9700   85.8860    9.3419 O.3     1  UNL1       -0.3529
      6 C          62.7688   84.7781   10.9798 C.ar    1  UNL1        0.0237
      7 C          63.5703   83.8860   10.0789 C.ar    1  UNL1        0.0012
      8 C          64.3151   82.7165   10.6511 C.ar    1  UNL1        0.0204
      9 C          64.2585   82.4392   12.1241 C.ar    1  UNL1        0.0989
     10 N          63.4570   83.3314   13.0250 N.ar    1  UNL1       -0.2426
     11 C          62.7121   84.5008   12.4528 C.ar    1  UNL1        0.0969
     12 N          58.3509   86.7280    7.7216 N.3     1  UNL1       -0.3191
     13 C          59.4467   87.6863    8.0836 C.3     1  UNL1        0.0951
     14 H          57.7307   87.1630    7.0386 H       1  UNL1        0.1189
     15 H          57.8197   86.4872    8.5583 H       1  UNL1        0.1189
@<TRIPOS>BOND
     1    12    13    1
     2     1    13    1
     3     1     2    1
     4     2     3    1
     5     3     4    1
     6     4     6    1
     7     6     7   ar
     8     7     8   ar
     9     8     9   ar
    10     9    10   ar
    11    10    11   ar
    12     4     5    1
    13     5     1    1
    14    11     6   ar
    15    12    14    1
    16    12    15    1
@<TRIPOS>MOLECULE
*****
 15 16 0 0 0
SMALL
GASTEIGER

@<TRIPOS>ATOM
      1 C          60.7247   87.8836   10.8017 C.3     1  UNL1        0.1311
      2 C          61.1311   87.6085    9.3842 C.3     1  UNL1        0.0338
      3 C          61.9576   86.3568    9.3737 C.3     1  UNL1        0.0367
      4 C          62.0621   85.8584   10.7846 C.3     1  UNL1        0.1389
      5 O          61.3001   86.8020   11.6672 O.3     1  UNL1       -0.3529
      6 C          62.7993   84.6317   11.2340 C.ar    1  UNL1        0.0237
      7 C          63.5643   83.8099   10.2394 C.ar    1  UNL1        0.0012
      8 C          64.3014   82.5833   10.6889 C.ar    1  UNL1        0.0204
      9 C          64.2734   82.1784   12.1329 C.ar    1  UNL1        0.0989
     10 N          63.5084   83.0002   13.1276 N.ar    1  UNL1       -0.2426
     11 C          62.7713   84.2268   12.6781 C.ar    1  UNL1        0.0969
     12 N          60.2012   89.7068   12.5771 N.3     1  UNL1       -0.3191
     13 C          59.8895   89.0377   11.2713 C.3     1  UNL1        0.0951
     14 H          59.5382   90.4652   12.7373 H       1  UNL1        0.1189
     15 H          61.1486   90.0838   12.5484 H       1  UNL1        0.1189
@<TRIPOS>BOND
     1    12    13    1
     2     1    13    1
     3     1     2    1
     4     2     3    1
     5     3     4    1
     6     4     6    1
     7     6     7   ar
     8     7     8   ar
     9     8     9   ar
    10     9    10   ar
    11    10    11   ar
    12     4     5    1
    13     5     1    1
    14    11     6   ar
    15    12    14    1
    16    12    15    1
@<TRIPOS>MOLECULE
*****
 15 16 0 0 0
SMALL
GASTEIGER

@<TRIPOS>ATOM
      1 C          63.3062   89.9394   12.6428 C.3     1  UNL1        0.1311
      2 C          63.4776   90.9730   11.5692 C.3     1  UNL1        0.0338
      3 C          62.8111   90.4642   10.3255 C.3     1  UNL1        0.0367
      4 C          62.2278   89.1163   10.6303 C.3     1  UNL1        0.1389
      5 O          62.5339   88.7920   12.0625 O.3     1  UNL1       -0.3529
      6 C          61.4714   88.2455    9.6713 C.ar    1  UNL1        0.0237
      7 C          61.9771   86.8711    9.3472 C.ar    1  UNL1        0.0012
      8 C          61.2206   86.0004    8.3882 C.ar    1  UNL1        0.0204
      9 C          59.9584   86.5042    7.7534 C.ar    1  UNL1        0.0989
     10 N          59.4527   87.8787    8.0775 N.ar    1  UNL1       -0.2426
     11 C          60.2091   88.7493    9.0365 C.ar    1  UNL1        0.0969
     12 N          63.4718   91.2278   14.8928 N.3     1  UNL1       -0.3191
     13 C          63.8175   90.0364   14.0496 C.3     1  UNL1        0.0951
     14 H          63.8999   91.1286   15.8133 H       1  UNL1        0.1189
     15 H          62.4588   91.2903   14.9940 H       1  UNL1        0.1189
@<TRIPOS>BOND
     1    12    13    1
     2     1    13    1
     3     1     2    1
     4     2     3    1
     5     3     4    1
     6     4     6    1
     7     6     7   ar
     8     7     8   ar
     9     8     9   ar
    10     9    10   ar
    11    10    11   ar
    12     4     5    1
    13     5     1    1
    14    11     6   ar
    15    12    14    1
    16    12    15    1
@<TRIPOS>MOLECULE
*****
 15 16 0 0 0
SMALL
GASTEIGER

@<TRIPOS>ATOM
      1 C          60.5472   87.8125    9.1781 C.3     1  UNL1        0.1311
      2 C          61.1213   86.5474    9.7440 C.3     1  UNL1        0.0338
      3 C          62.0663   86.9204   10.8475 C.3     1  UNL1        0.0367
      4 C          62.0762   88.4159   10.9638 C.3     1  UNL1        0.1389
      5 O          61.1374   88.9672    9.9320 O.3     1  UNL1       -0.3529
      6 C          62.8834   89.2190   11.9403 C.ar    1  UNL1        0.0237
      7 C          63.5593   88.5383   13.0935 C.ar    1  UNL1        0.0012
      8 C          64.3664   89.3414   14.0700 C.ar    1  UNL1        0.0204
      9 C          64.4975   90.8252   13.8933 C.ar    1  UNL1        0.0989
     10 N          63.8216   91.5059   12.7402 N.ar    1  UNL1       -0.2426
     11 C          63.0145   90.7028   11.7637 C.ar    1  UNL1        0.0969
     12 N          58.5466   86.8161    7.8535 N.3     1  UNL1       -0.3191
     13 C          59.5568   87.9063    8.0555 C.3     1  UNL1        0.0951
     14 H          57.9583   87.0419    7.0514 H       1  UNL1        0.1189
     15 H          57.9660   86.7316    8.6879 H       1  UNL1        0.1189
@<TRIPOS>BOND
     1    12    13    1
     2     1    13    1
     3     1     2    1
     4     2     3    1
     5     3     4    1
     6     4     6    1
     7     6     7   ar
     8     7     8   ar
     9     8     9   ar
    10     9    10   ar
    11    10    11   ar
    12     4     5    1
    13     5     1    1
    14    11     6   ar
    15    12    14    1
    16    12    15    1
@<TRIPOS>MOLECULE
*****
 15 16 0 0 0
SMALL
GASTEIGER

@<TRIPOS>ATOM
      1 C          63.2574   84.1213   13.2321 C.3     1  UNL1        0.1311
      2 C          63.7976   83.4352   12.0124 C.3     1  UNL1        0.0338
      3 C          63.1908   84.0886   10.8062 C.3     1  UNL1        0.0367
      4 C          62.2757   85.1784   11.2804 C.3     1  UNL1        0.1389
      5 O          62.3168   85.1986   12.7797 O.3     1  UNL1       -0.3529
      6 C          61.4622   86.0883   10.4083 C.ar    1  UNL1        0.0237
      7 C          61.3187   85.7936    8.9446 C.ar    1  UNL1        0.0012
      8 C          60.5053   86.7035    8.0726 C.ar    1  UNL1        0.0204
      9 C          59.8353   87.9080    8.6644 C.ar    1  UNL1        0.0989
     10 N          59.9788   88.2028   10.1281 N.ar    1  UNL1       -0.2426
     11 C          60.7923   87.2929   11.0000 C.ar    1  UNL1        0.0969
     12 N          62.8634   82.6899   15.3643 N.3     1  UNL1       -0.3191
     13 C          63.5980   83.7884   14.6545 C.3     1  UNL1        0.0951
     14 H          63.2210   82.6011   16.3154 H       1  UNL1        0.1189
     15 H          63.0017   81.8110   14.8656 H       1  UNL1        0.1189
@<TRIPOS>BOND
     1    12    13    1
     2     1    13    1
     3     1     2    1
     4     2     3    1
     5     3     4    1
     6     4     6    1
     7     6     7   ar
     8     7     8   ar
     9     8     9   ar
    10     9    10   ar
    11    10    11   ar
    12     4     5    1
    13     5     1    1
    14    11     6   ar
    15    12    14    1
    16    12    15    1
@<TRIPOS>MOLECULE
*****
 15 16 0 0 0
SMALL
GASTEIGER

@<TRIPOS>ATOM
      1 C          63.1803   82.1223   12.2673 C.3     1  UNL1        0.1311
      2 C          63.9582   82.0838   10.9853 C.3     1  UNL1        0.0338
      3 C          63.7824   83.4048   10.2967 C.3     1  UNL1        0.0367
      4 C          62.8959   84.2596   11.1531 C.3     1  UNL1        0.1389
      5 O          62.5238   83.4670   12.3710 O.3     1  UNL1       -0.3529
      6 C          62.4584   85.6611   10.8456 C.ar    1  UNL1        0.0237
      7 C          61.8744   85.9869    9.5029 C.ar    1  UNL1        0.0012
      8 C          61.4369   87.3883    9.1954 C.ar    1  UNL1        0.0204
      9 C          61.5834   88.4639   10.2306 C.ar    1  UNL1        0.0989
     10 N          62.1673   88.1381   11.5733 N.ar    1  UNL1       -0.2426
     11 C          62.6048   86.7367   11.8808 C.ar    1  UNL1        0.0969
     12 N          62.3639   81.2376   14.5697 N.3     1  UNL1       -0.3191
     13 C          63.0770   81.0111   13.2696 C.3     1  UNL1        0.0951
     14 H          62.3898   80.3825   15.1251 H       1  UNL1        0.1189
     15 H          61.3940   81.4941   14.3853 H       1  UNL1        0.1189
@<TRIPOS>BOND
     1    12    13    1
     2     1    13    1
     3     1     2    1
     4     2     3    1
     5     3     4    1
     6     4     6    1
     7     6     7   ar
     8     7     8   ar
     9     8     9   ar
    10     9    10   ar
    11    10    11   ar
    12     4     5    1
    13     5     1    1
    14    11     6   ar
    15    12    14    1
    16    12    15    1
@<TRIPOS>MOLECULE
*****
 15 16 0 0 0
SMALL
GASTEIGER

@<TRIPOS>ATOM
      1 C          61.8662   90.0393   11.4130 C.3     1  UNL1        0.1311
      2 C          62.4376   90.6818   10.1838 C.3     1  UNL1        0.0338
      3 C          63.6870   91.4110   10.5801 C.3     1  UNL1        0.0367
      4 C          63.8879   91.2191   12.0542 C.3     1  UNL1        0.1389
      5 O          62.7626   90.3714   12.5689 O.3     1  UNL1       -0.3529
      6 C          65.0161   91.7771   12.8703 C.ar    1  UNL1        0.0237
      7 C          65.4354   91.0925   14.1373 C.ar    1  UNL1        0.0012
      8 C          66.5635   91.6505   14.9533 C.ar    1  UNL1        0.0204
      9 C          67.2724   92.8931   14.5023 C.ar    1  UNL1        0.0989
     10 N          66.8531   93.5777   13.2352 N.ar    1  UNL1       -0.2426
     11 C          65.7250   93.0197   12.4192 C.ar    1  UNL1        0.0969
     12 N          59.6778   89.3558   12.6351 N.3     1  UNL1       -0.3191
     13 C          60.6177   89.2102   11.4752 C.3     1  UNL1        0.0951
     14 H          58.8884   88.7211   12.5148 H       1  UNL1        0.1189
     15 H          59.3380   90.3165   12.6789 H       1  UNL1        0.1189
@<TRIPOS>BOND
     1    12    13    1
     2     1    13    1
     3     1     2    1
     4     2     3    1
     5     3     4    1
     6     4     6    1
     7     6     7   ar
     8     7     8   ar
     9     8     9   ar
    10     9    10   ar
    11    10    11   ar
    12     4     5    1
    13     5     1    1
    14    11     6   ar
    15    12    14    1
    16    12    15    1
@<TRIPOS>MOLECULE
*****
 15 16 0 0 0
SMALL
GASTEIGER

@<TRIPOS>ATOM
      1 C          60.7975   86.5598    9.0946 C.3     1  UNL1        0.1311
      2 C          61.2573   87.7563    9.8738 C.3     1  UNL1        0.0338
      3 C          62.0443   87.2668   11.0532 C.3     1  UNL1        0.0367
      4 C          62.0709   85.7678   11.0029 C.3     1  UNL1        0.1389
      5 O          61.3004   85.3309    9.7924 O.3     1  UNL1       -0.3529
      6 C          62.7491   84.8644   11.9899 C.ar    1  UNL1        0.0237
      7 C          62.7169   83.3780   11.7913 C.ar    1  UNL1        0.0012
      8 C          63.3950   82.4747   12.7782 C.ar    1  UNL1        0.0204
      9 C          64.1053   83.0577   13.9637 C.ar    1  UNL1        0.0989
     10 N          64.1375   84.5442   14.1623 N.ar    1  UNL1       -0.2426
     11 C          63.4594   85.4475   13.1754 C.ar    1  UNL1        0.0969
     12 N          58.4919   86.7701    7.9157 N.3     1  UNL1       -0.3191
     13 C          59.9786   86.5875    7.8381 C.3     1  UNL1        0.0951
     14 H          58.0990   86.7644    6.9744 H       1  UNL1        0.1189
     15 H          58.2818   87.6607    8.3664 H       1  UNL1        0.1189
@<TRIPOS>BOND
     1    12    13    1
     2     1    13    1
     3     1     2    1
     4     2     3    1
     5     3     4    1
     6     4     6    1
     7     6     7   ar
     8     7     8   ar
     9     8     9   ar
    10     9    10   ar
    11    10    11   ar
    12     4     5    1
    13     5     1    1
    14    11     6   ar
    15    12    14    1
    16    12    15    1
