@<TRIPOS>MOLECULE
*****
 29 33 0 0 0
SMALL
GASTEIGER

@<TRIPOS>ATOM
      1 N          64.2629   91.2446   14.0405 N.pl3   1  UNL1       -0.2803
      2 C          63.5816   91.0085   12.7251 C.ar    1  UNL1        0.0513
      3 C          62.2874   90.2713   12.9028 C.ar    1  UNL1        0.0146
      4 C          61.4465   89.9337   11.7075 C.ar    1  UNL1        0.0013
      5 C          61.8997   90.3332   10.3346 C.ar    1  UNL1       -0.0001
      6 C          63.1939   91.0703   10.1569 C.ar    1  UNL1        0.0006
      7 C          64.0348   91.4080   11.3522 C.ar    1  UNL1        0.0348
      8 C          65.2813   92.1423   10.9556 C.3     1  UNL1        0.2333
      9 O          66.3823   92.6584   11.8338 O.3     1  UNL1       -0.4693
     10 C          66.5088   92.5677   13.3257 C.ar    1  UNL1        0.1548
     11 C          67.7720   93.2164   13.8090 C.ar    1  UNL1        0.0678
     12 C          68.0919   93.2359   15.2744 C.ar    1  UNL1        0.1433
     13 F          69.3551   93.8846   15.7577 F       1  UNL1       -0.2041
     14 C          67.1488   92.6068   16.2564 C.ar    1  UNL1        0.0311
     15 C          65.8856   91.9581   15.7731 C.ar    1  UNL1        0.0202
     16 C          65.5656   91.9385   14.3078 C.ar    1  UNL1        0.0864
     17 C          63.5467   90.7171   15.2483 C.3     1  UNL1        0.1222
     18 O          64.9132   83.3931   12.9586 O.2     1  UNL1       -0.2707
     19 C          64.4532   84.3618   14.0074 C.2     1  UNL1        0.2707
     20 C          63.9886   83.8580   15.3416 C.3     1  UNL1        0.2897
     21 O          63.5285   84.8267   16.3904 O.3     1  UNL1       -0.4643
     22 C          63.5330   86.2994   16.1048 C.ar    1  UNL1        0.1526
     23 C          63.0730   87.2681   17.1536 C.ar    1  UNL1        0.0379
     24 C          63.0775   88.7406   16.8680 C.ar    1  UNL1        0.0006
     25 C          63.5421   89.2444   15.5338 C.ar    1  UNL1       -0.0007
     26 C          64.0022   88.2757   14.4850 C.ar    1  UNL1        0.0152
     27 C          63.9976   86.8032   14.7706 C.ar    1  UNL1        0.0846
     28 N          64.4577   85.8344   13.7219 N.am    1  UNL1       -0.2785
     29 H          64.7627   86.1651   12.8461 H       1  UNL1        0.1551
@<TRIPOS>BOND
     1    18    19    2
     2    19    20    1
     3    20    21    1
     4    21    22    1
     5    22    23   ar
     6    23    24   ar
     7    24    25   ar
     8    25    17    1
     9    17     1    1
    10     1     2    1
    11     2     3   ar
    12     3     4   ar
    13     4     5   ar
    14     5     6   ar
    15     6     7   ar
    16     7     8    1
    17     8     9    1
    18     9    10    1
    19    10    11   ar
    20    11    12   ar
    21    12    13    1
    22    12    14   ar
    23    14    15   ar
    24    15    16   ar
    25    25    26   ar
    26    26    27   ar
    27    27    28    1
    28    28    19   am
    29    27    22   ar
    30    16     1    1
    31     7     2   ar
    32    16    10   ar
    33    28    29    1
@<TRIPOS>MOLECULE
*****
 29 33 0 0 0
SMALL
GASTEIGER

@<TRIPOS>ATOM
      1 N          64.2887   91.1380   14.0240 N.pl3   1  UNL1       -0.2803
      2 C          65.6123   91.8159   14.2199 C.ar    1  UNL1        0.0513
      3 C          66.0073   91.8392   15.6668 C.ar    1  UNL1        0.0146
      4 C          67.3019   92.4736   16.0807 C.ar    1  UNL1        0.0013
      5 C          68.2016   93.0848   15.0477 C.ar    1  UNL1       -0.0001
      6 C          67.8066   93.0616   13.6008 C.ar    1  UNL1        0.0006
      7 C          66.5120   92.4272   13.1870 C.ar    1  UNL1        0.0348
      8 C          66.3102   92.5113   11.7030 C.3     1  UNL1        0.2333
      9 O          65.1589   92.0052   10.8854 O.3     1  UNL1       -0.4693
     10 C          63.9251   91.2897   11.3500 C.ar    1  UNL1        0.1548
     11 C          63.0195   90.9568   10.2014 C.ar    1  UNL1        0.0678
     12 C          61.7266   90.2378   10.4497 C.ar    1  UNL1        0.1433
     13 F          60.8211   89.9049    9.3012 F       1  UNL1       -0.2041
     14 C          61.3393   89.8519   11.8465 C.ar    1  UNL1        0.0311
     15 C          62.2449   90.1849   12.9950 C.ar    1  UNL1        0.0202
     16 C          63.5377   90.9038   12.7468 C.ar    1  UNL1        0.0864
     17 C          63.6286   90.6266   15.2701 C.3     1  UNL1        0.1222
     18 O          64.8984   83.2897   12.9661 O.2     1  UNL1       -0.2707
     19 C          64.4328   84.2614   14.0096 C.2     1  UNL1        0.2707
     20 C          63.9248   83.7593   15.3286 C.3     1  UNL1        0.2897
     21 O          63.4592   84.7311   16.3721 O.3     1  UNL1       -0.4643
     22 C          63.5016   86.2050   16.0966 C.ar    1  UNL1        0.1526
     23 C          63.0359   87.1767   17.1401 C.ar    1  UNL1        0.0379
     24 C          63.0783   88.6505   16.8646 C.ar    1  UNL1        0.0006
     25 C          63.5863   89.1527   15.5456 C.ar    1  UNL1       -0.0007
     26 C          64.0519   88.1809   14.5021 C.ar    1  UNL1        0.0152
     27 C          64.0095   86.7071   14.7776 C.ar    1  UNL1        0.0846
     28 N          64.4751   85.7353   13.7341 N.am    1  UNL1       -0.2785
     29 H          64.8085   86.0649   12.8684 H       1  UNL1        0.1551
@<TRIPOS>BOND
     1    18    19    2
     2    19    20    1
     3    20    21    1
     4    21    22    1
     5    22    23   ar
     6    23    24   ar
     7    24    25   ar
     8    25    17    1
     9    17     1    1
    10     1     2    1
    11     2     3   ar
    12     3     4   ar
    13     4     5   ar
    14     5     6   ar
    15     6     7   ar
    16     7     8    1
    17     8     9    1
    18     9    10    1
    19    10    11   ar
    20    11    12   ar
    21    12    13    1
    22    12    14   ar
    23    14    15   ar
    24    15    16   ar
    25    25    26   ar
    26    26    27   ar
    27    27    28    1
    28    28    19   am
    29    27    22   ar
    30    16     1    1
    31     7     2   ar
    32    16    10   ar
    33    28    29    1
@<TRIPOS>MOLECULE
*****
 29 33 0 0 0
SMALL
GASTEIGER

@<TRIPOS>ATOM
      1 N          62.4157   88.3078   12.1658 N.pl3   1  UNL1       -0.2803
      2 C          63.1633   87.2150   12.8709 C.ar    1  UNL1        0.0513
      3 C          63.8015   87.7139   14.1333 C.ar    1  UNL1        0.0146
      4 C          64.5992   86.7772   14.9913 C.ar    1  UNL1        0.0013
      5 C          64.7587   85.3416   14.5869 C.ar    1  UNL1       -0.0001
      6 C          64.1205   84.8427   13.3245 C.ar    1  UNL1        0.0006
      7 C          63.3228   85.7794   12.4665 C.ar    1  UNL1        0.0348
      8 C          62.7740   85.0820   11.2571 C.3     1  UNL1        0.2333
      9 O          61.9303   85.6478   10.1535 O.3     1  UNL1       -0.4693
     10 C          61.4269   87.0510    9.9867 C.ar    1  UNL1        0.1548
     11 C          60.6121   87.1958    8.7357 C.ar    1  UNL1        0.0678
     12 C          60.0134   88.5244    8.3802 C.ar    1  UNL1        0.1433
     13 F          59.1986   88.6692    7.1291 F       1  UNL1       -0.2041
     14 C          60.2294   89.7081    9.2757 C.ar    1  UNL1        0.0311
     15 C          61.0442   89.5633   10.5267 C.ar    1  UNL1        0.0202
     16 C          61.6429   88.2348   10.8823 C.ar    1  UNL1        0.0864
     17 C          62.4447   89.6511   12.8325 C.3     1  UNL1        0.1222
     18 O          66.5717   94.7489    8.6217 O.2     1  UNL1       -0.2707
     19 C          66.3950   93.9378    9.8710 C.2     1  UNL1        0.2707
     20 C          67.4172   94.0148   10.9660 C.3     1  UNL1        0.2897
     21 O          67.2405   93.2037   12.2154 O.3     1  UNL1       -0.4643
     22 C          66.0415   92.3155   12.3697 C.ar    1  UNL1        0.1526
     23 C          65.8648   91.5044   13.6190 C.ar    1  UNL1        0.0379
     24 C          64.6659   90.6163   13.7733 C.ar    1  UNL1        0.0006
     25 C          63.6437   90.5393   12.6782 C.ar    1  UNL1       -0.0007
     26 C          63.8204   91.3504   11.4289 C.ar    1  UNL1        0.0152
     27 C          65.0193   92.2385   11.2747 C.ar    1  UNL1        0.0846
     28 N          65.1960   93.0496   10.0253 N.am    1  UNL1       -0.2785
     29 H          64.5251   92.9991    9.3066 H       1  UNL1        0.1551
@<TRIPOS>BOND
     1    18    19    2
     2    19    20    1
     3    20    21    1
     4    21    22    1
     5    22    23   ar
     6    23    24   ar
     7    24    25   ar
     8    25    17    1
     9    17     1    1
    10     1     2    1
    11     2     3   ar
    12     3     4   ar
    13     4     5   ar
    14     5     6   ar
    15     6     7   ar
    16     7     8    1
    17     8     9    1
    18     9    10    1
    19    10    11   ar
    20    11    12   ar
    21    12    13    1
    22    12    14   ar
    23    14    15   ar
    24    15    16   ar
    25    25    26   ar
    26    26    27   ar
    27    27    28    1
    28    28    19   am
    29    27    22   ar
    30    16     1    1
    31     7     2   ar
    32    16    10   ar
    33    28    29    1
@<TRIPOS>MOLECULE
*****
 29 33 0 0 0
SMALL
GASTEIGER

@<TRIPOS>ATOM
      1 N          63.5851   82.8966   12.0878 N.pl3   1  UNL1       -0.2803
      2 C          63.2043   81.4961   11.7089 C.ar    1  UNL1        0.0513
      3 C          63.4431   81.2387   10.2506 C.ar    1  UNL1        0.0146
      4 C          63.1271   79.8945    9.6648 C.ar    1  UNL1        0.0013
      5 C          62.5723   78.8078   10.5372 C.ar    1  UNL1       -0.0001
      6 C          62.3335   79.0652   11.9955 C.ar    1  UNL1        0.0006
      7 C          62.6495   80.4093   12.5813 C.ar    1  UNL1        0.0348
      8 C          62.3384   80.4547   14.0481 C.3     1  UNL1        0.2333
      9 O          62.5053   81.5980   15.0046 O.3     1  UNL1       -0.4693
     10 C          63.0246   82.9784   14.7307 C.ar    1  UNL1        0.1548
     11 C          63.0275   83.8193   15.9728 C.ar    1  UNL1        0.0678
     12 C          63.5111   85.2381   15.9168 C.ar    1  UNL1        0.1433
     13 F          63.5141   86.0790   17.1590 F       1  UNL1       -0.2041
     14 C          63.9916   85.8161   14.6188 C.ar    1  UNL1        0.0311
     15 C          63.9886   84.9752   13.3766 C.ar    1  UNL1        0.0202
     16 C          63.5051   83.5564   13.4326 C.ar    1  UNL1        0.0864
     17 C          64.1161   83.7504   10.9746 C.3     1  UNL1        0.1222
     18 O          59.4209   89.9571   11.4016 O.2     1  UNL1       -0.2707
     19 C          60.0916   88.8890   10.5895 C.2     1  UNL1        0.2707
     20 C          59.8679   88.8218    9.1079 C.3     1  UNL1        0.2897
     21 O          60.5386   87.7537    8.2959 O.3     1  UNL1       -0.4643
     22 C          61.4330   86.7528    8.9656 C.ar    1  UNL1        0.1526
     23 C          62.1037   85.6847    8.1536 C.ar    1  UNL1        0.0379
     24 C          62.9980   84.6839    8.8233 C.ar    1  UNL1        0.0006
     25 C          63.2217   84.7512   10.3049 C.ar    1  UNL1       -0.0007
     26 C          62.5510   85.8193   11.1170 C.ar    1  UNL1        0.0152
     27 C          61.6567   86.8201   10.4472 C.ar    1  UNL1        0.0846
     28 N          60.9860   87.8882   11.2592 N.am    1  UNL1       -0.2785
     29 H          61.1328   87.9324   12.2317 H       1  UNL1        0.1551
@<TRIPOS>BOND
     1    18    19    2
     2    19    20    1
     3    20    21    1
     4    21    22    1
     5    22    23   ar
     6    23    24   ar
     7    24    25   ar
     8    25    17    1
     9    17     1    1
    10     1     2    1
    11     2     3   ar
    12     3     4   ar
    13     4     5   ar
    14     5     6   ar
    15     6     7   ar
    16     7     8    1
    17     8     9    1
    18     9    10    1
    19    10    11   ar
    20    11    12   ar
    21    12    13    1
    22    12    14   ar
    23    14    15   ar
    24    15    16   ar
    25    25    26   ar
    26    26    27   ar
    27    27    28    1
    28    28    19   am
    29    27    22   ar
    30    16     1    1
    31     7     2   ar
    32    16    10   ar
    33    28    29    1
@<TRIPOS>MOLECULE
*****
 29 33 0 0 0
SMALL
GASTEIGER

@<TRIPOS>ATOM
      1 N          62.2017   88.3003   11.8314 N.pl3   1  UNL1       -0.2803
      2 C          62.9658   87.2611   12.5970 C.ar    1  UNL1        0.0513
      3 C          63.5654   87.8322   13.8477 C.ar    1  UNL1        0.0146
      4 C          64.3722   86.9568   14.7601 C.ar    1  UNL1        0.0013
      5 C          64.5795   85.5102   14.4218 C.ar    1  UNL1       -0.0001
      6 C          63.9800   84.9391   13.1711 C.ar    1  UNL1        0.0006
      7 C          63.1731   85.8145   12.2587 C.ar    1  UNL1        0.0348
      8 C          62.6675   85.0499   11.0713 C.3     1  UNL1        0.2333
      9 O          61.8298   85.5430    9.9290 O.3     1  UNL1       -0.4693
     10 C          61.2907   86.9226    9.6919 C.ar    1  UNL1        0.1548
     11 C          60.4965   86.9897    8.4212 C.ar    1  UNL1        0.0678
     12 C          59.8677   88.2839    7.9971 C.ar    1  UNL1        0.1433
     13 F          59.0735   88.3510    6.7264 F       1  UNL1       -0.2041
     14 C          60.0333   89.5110    8.8437 C.ar    1  UNL1        0.0311
     15 C          60.8275   89.4439   10.1144 C.ar    1  UNL1        0.0202
     16 C          61.4562   88.1498   10.5385 C.ar    1  UNL1        0.0864
     17 C          62.1803   89.6715   12.4391 C.3     1  UNL1        0.1222
     18 O          68.3513   92.2941   16.4129 O.2     1  UNL1       -0.2707
     19 C          67.5523   92.2350   15.1448 C.2     1  UNL1        0.2707
     20 C          68.0113   92.9908   13.9333 C.3     1  UNL1        0.2897
     21 O          67.2123   92.9317   12.6651 O.3     1  UNL1       -0.4643
     22 C          65.9542   92.1166   12.6086 C.ar    1  UNL1        0.1526
     23 C          65.1552   92.0575   11.3405 C.ar    1  UNL1        0.0379
     24 C          63.8973   91.2425   11.2841 C.ar    1  UNL1        0.0006
     25 C          63.4383   90.4866   12.4956 C.ar    1  UNL1       -0.0007
     26 C          64.2373   90.5457   13.7637 C.ar    1  UNL1        0.0152
     27 C          65.4953   91.3608   13.8202 C.ar    1  UNL1        0.0846
     28 N          66.2943   91.4199   15.0883 N.am    1  UNL1       -0.2785
     29 H          65.9930   90.9238   15.8835 H       1  UNL1        0.1551
@<TRIPOS>BOND
     1    18    19    2
     2    19    20    1
     3    20    21    1
     4    21    22    1
     5    22    23   ar
     6    23    24   ar
     7    24    25   ar
     8    25    17    1
     9    17     1    1
    10     1     2    1
    11     2     3   ar
    12     3     4   ar
    13     4     5   ar
    14     5     6   ar
    15     6     7   ar
    16     7     8    1
    17     8     9    1
    18     9    10    1
    19    10    11   ar
    20    11    12   ar
    21    12    13    1
    22    12    14   ar
    23    14    15   ar
    24    15    16   ar
    25    25    26   ar
    26    26    27   ar
    27    27    28    1
    28    28    19   am
    29    27    22   ar
    30    16     1    1
    31     7     2   ar
    32    16    10   ar
    33    28    29    1
@<TRIPOS>MOLECULE
*****
 29 33 0 0 0
SMALL
GASTEIGER

@<TRIPOS>ATOM
      1 N          61.9013   87.7269   11.3569 N.pl3   1  UNL1       -0.2803
      2 C          61.1884   87.5911   10.0441 C.ar    1  UNL1        0.0513
      3 C          60.4632   88.8529    9.6812 C.ar    1  UNL1        0.0146
      4 C          59.6839   88.9286    8.4018 C.ar    1  UNL1        0.0013
      5 C          59.6299   87.7424    7.4852 C.ar    1  UNL1       -0.0001
      6 C          60.3551   86.4806    7.8481 C.ar    1  UNL1        0.0006
      7 C          61.1344   86.4049    9.1275 C.ar    1  UNL1        0.0348
      8 C          61.7799   85.0616    9.2975 C.3     1  UNL1        0.2333
      9 O          62.6388   84.5726   10.4258 O.3     1  UNL1       -0.4693
     10 C          63.0643   85.3063   11.6630 C.ar    1  UNL1        0.1548
     11 C          63.9265   84.4476   12.5401 C.ar    1  UNL1        0.0678
     12 C          64.4605   84.9927   13.8315 C.ar    1  UNL1        0.1433
     13 F          65.3227   84.1339   14.7086 F       1  UNL1       -0.2041
     14 C          64.1323   86.3964   14.2459 C.ar    1  UNL1        0.0311
     15 C          63.2701   87.2551   13.3688 C.ar    1  UNL1        0.0202
     16 C          62.7361   86.7101   12.0774 C.ar    1  UNL1        0.0864
     17 C          61.7606   89.0551   12.0394 C.3     1  UNL1        0.1222
     18 O          67.3324   93.7183   14.8610 O.2     1  UNL1       -0.2707
     19 C          66.5083   93.2302   13.7066 C.2     1  UNL1        0.2707
     20 C          66.7174   93.8082   12.3384 C.3     1  UNL1        0.2897
     21 O          65.8933   93.3201   11.1840 O.3     1  UNL1       -0.4643
     22 C          64.8601   92.2538   11.3979 C.ar    1  UNL1        0.1526
     23 C          64.0360   91.7657   10.2435 C.ar    1  UNL1        0.0379
     24 C          63.0029   90.6995   10.4574 C.ar    1  UNL1        0.0006
     25 C          62.7938   90.1214   11.8256 C.ar    1  UNL1       -0.0007
     26 C          63.6179   90.6095   12.9800 C.ar    1  UNL1        0.0152
     27 C          64.6511   91.6758   12.7661 C.ar    1  UNL1        0.0846
     28 N          65.4751   92.1639   13.9205 N.am    1  UNL1       -0.2785
     29 H          65.3379   91.7845   14.8185 H       1  UNL1        0.1551
@<TRIPOS>BOND
     1    18    19    2
     2    19    20    1
     3    20    21    1
     4    21    22    1
     5    22    23   ar
     6    23    24   ar
     7    24    25   ar
     8    25    17    1
     9    17     1    1
    10     1     2    1
    11     2     3   ar
    12     3     4   ar
    13     4     5   ar
    14     5     6   ar
    15     6     7   ar
    16     7     8    1
    17     8     9    1
    18     9    10    1
    19    10    11   ar
    20    11    12   ar
    21    12    13    1
    22    12    14   ar
    23    14    15   ar
    24    15    16   ar
    25    25    26   ar
    26    26    27   ar
    27    27    28    1
    28    28    19   am
    29    27    22   ar
    30    16     1    1
    31     7     2   ar
    32    16    10   ar
    33    28    29    1
@<TRIPOS>MOLECULE
*****
 29 33 0 0 0
SMALL
GASTEIGER

@<TRIPOS>ATOM
      1 N          62.3099   88.3113   12.0089 N.pl3   1  UNL1       -0.2803
      2 C          61.5403   88.3758   10.7230 C.ar    1  UNL1        0.0513
      3 C          60.9837   89.7483   10.4856 C.ar    1  UNL1        0.0146
      4 C          60.1786   90.0279    9.2513 C.ar    1  UNL1        0.0013
      5 C          59.9300   88.9350    8.2544 C.ar    1  UNL1       -0.0001
      6 C          60.4866   87.5625    8.4918 C.ar    1  UNL1        0.0006
      7 C          61.2917   87.2829    9.7261 C.ar    1  UNL1        0.0348
      8 C          61.7514   85.8557    9.7690 C.3     1  UNL1        0.2333
      9 O          62.5731   85.1688   10.8192 O.3     1  UNL1       -0.4693
     10 C          63.1382   85.7397   12.0860 C.ar    1  UNL1        0.1548
     11 C          63.9036   84.7068   12.8589 C.ar    1  UNL1        0.0678
     12 C          64.5519   85.0724   14.1612 C.ar    1  UNL1        0.1433
     13 F          65.3172   84.0395   14.9341 F       1  UNL1       -0.2041
     14 C          64.4347   86.4709   14.6907 C.ar    1  UNL1        0.0311
     15 C          63.6693   87.5038   13.9178 C.ar    1  UNL1        0.0202
     16 C          63.0211   87.1382   12.6155 C.ar    1  UNL1        0.0864
     17 C          62.3773   89.5891   12.7917 C.3     1  UNL1        0.1222
     18 O          66.5728   94.7214    8.6918 O.2     1  UNL1       -0.2707
     19 C          66.3726   93.9043    9.9337 C.2     1  UNL1        0.2707
     20 C          67.3706   93.9809   11.0508 C.3     1  UNL1        0.2897
     21 O          67.1704   93.1638   12.2927 O.3     1  UNL1       -0.4643
     22 C          65.9721   92.2701   12.4175 C.ar    1  UNL1        0.1526
     23 C          65.7719   91.4530   13.6594 C.ar    1  UNL1        0.0379
     24 C          64.5736   90.5593   13.7840 C.ar    1  UNL1        0.0006
     25 C          63.5756   90.4828   12.6669 C.ar    1  UNL1       -0.0007
     26 C          63.7758   91.2999   11.4251 C.ar    1  UNL1        0.0152
     27 C          64.9741   92.1935   11.3004 C.ar    1  UNL1        0.0846
     28 N          65.1743   93.0106   10.0585 N.am    1  UNL1       -0.2785
     29 H          64.5192   92.9604    9.3253 H       1  UNL1        0.1551
@<TRIPOS>BOND
     1    18    19    2
     2    19    20    1
     3    20    21    1
     4    21    22    1
     5    22    23   ar
     6    23    24   ar
     7    24    25   ar
     8    25    17    1
     9    17     1    1
    10     1     2    1
    11     2     3   ar
    12     3     4   ar
    13     4     5   ar
    14     5     6   ar
    15     6     7   ar
    16     7     8    1
    17     8     9    1
    18     9    10    1
    19    10    11   ar
    20    11    12   ar
    21    12    13    1
    22    12    14   ar
    23    14    15   ar
    24    15    16   ar
    25    25    26   ar
    26    26    27   ar
    27    27    28    1
    28    28    19   am
    29    27    22   ar
    30    16     1    1
    31     7     2   ar
    32    16    10   ar
    33    28    29    1
@<TRIPOS>MOLECULE
*****
 29 33 0 0 0
SMALL
GASTEIGER

@<TRIPOS>ATOM
      1 N          62.6444   86.3461   11.5503 N.pl3   1  UNL1       -0.2803
      2 C          63.4074   85.7518   12.6969 C.ar    1  UNL1        0.0513
      3 C          63.3132   86.6117   13.9223 C.ar    1  UNL1        0.0146
      4 C          64.0080   86.1965   15.1851 C.ar    1  UNL1        0.0013
      5 C          64.7970   84.9213   15.2225 C.ar    1  UNL1       -0.0001
      6 C          64.8912   84.0613   13.9972 C.ar    1  UNL1        0.0006
      7 C          64.1964   84.4766   12.7343 C.ar    1  UNL1        0.0348
      8 C          64.4172   83.4808   11.6344 C.3     1  UNL1        0.2333
      9 O          63.9036   83.5142   10.2255 O.3     1  UNL1       -0.4693
     10 C          63.0423   84.5518    9.5685 C.ar    1  UNL1        0.1548
     11 C          62.7554   84.2005    8.1387 C.ar    1  UNL1        0.0678
     12 C          61.9082   85.1095    7.2985 C.ar    1  UNL1        0.1433
     13 F          61.6214   84.7582    5.8687 F       1  UNL1       -0.2041
     14 C          61.3478   86.3698    7.8880 C.ar    1  UNL1        0.0311
     15 C          61.6347   86.7211    9.3178 C.ar    1  UNL1        0.0202
     16 C          62.4819   85.8121   10.1580 C.ar    1  UNL1        0.0864
     17 C          61.9524   87.6465   11.8335 C.3     1  UNL1        0.1222
     18 O          66.7859   93.0999   14.5990 O.2     1  UNL1       -0.2707
     19 C          65.9100   92.5774   13.4990 C.2     1  UNL1        0.2707
     20 C          65.7694   93.3500   12.2211 C.3     1  UNL1        0.2897
     21 O          64.8935   92.8275   11.1212 O.3     1  UNL1       -0.4643
     22 C          64.1582   91.5322   11.2993 C.ar    1  UNL1        0.1526
     23 C          63.2823   91.0096   10.1994 C.ar    1  UNL1        0.0379
     24 C          62.5471   89.7144   10.3775 C.ar    1  UNL1        0.0006
     25 C          62.6877   88.9417   11.6554 C.ar    1  UNL1       -0.0007
     26 C          63.5636   89.4643   12.7553 C.ar    1  UNL1        0.0152
     27 C          64.2988   90.7595   12.5772 C.ar    1  UNL1        0.0846
     28 N          65.1747   91.2821   13.6771 N.am    1  UNL1       -0.2785
     29 H          65.2670   90.7750   14.5159 H       1  UNL1        0.1551
@<TRIPOS>BOND
     1    18    19    2
     2    19    20    1
     3    20    21    1
     4    21    22    1
     5    22    23   ar
     6    23    24   ar
     7    24    25   ar
     8    25    17    1
     9    17     1    1
    10     1     2    1
    11     2     3   ar
    12     3     4   ar
    13     4     5   ar
    14     5     6   ar
    15     6     7   ar
    16     7     8    1
    17     8     9    1
    18     9    10    1
    19    10    11   ar
    20    11    12   ar
    21    12    13    1
    22    12    14   ar
    23    14    15   ar
    24    15    16   ar
    25    25    26   ar
    26    26    27   ar
    27    27    28    1
    28    28    19   am
    29    27    22   ar
    30    16     1    1
    31     7     2   ar
    32    16    10   ar
    33    28    29    1
@<TRIPOS>MOLECULE
*****
 29 33 0 0 0
SMALL
GASTEIGER

@<TRIPOS>ATOM
      1 N          61.2262   94.2332    1.5733 N.pl3   1  UNL1       -0.2803
      2 C          62.3970   94.5711    0.6987 C.ar    1  UNL1        0.0513
      3 C          62.0972   95.7413   -0.1905 C.ar    1  UNL1        0.0146
      4 C          63.1385   96.2429   -1.1466 C.ar    1  UNL1        0.0013
      5 C          64.4796   95.5743   -1.2134 C.ar    1  UNL1       -0.0001
      6 C          64.7794   94.4042   -0.3242 C.ar    1  UNL1        0.0006
      7 C          63.7381   93.9025    0.6318 C.ar    1  UNL1        0.0348
      8 C          64.2395   92.7310    1.4231 C.3     1  UNL1        0.2333
      9 O          63.5238   91.9387    2.4767 O.3     1  UNL1       -0.4693
     10 C          62.1298   92.1223    2.9991 C.ar    1  UNL1        0.1548
     11 C          61.8031   91.1098    4.0565 C.ar    1  UNL1        0.0678
     12 C          60.4538   91.1184    4.7119 C.ar    1  UNL1        0.1433
     13 F          60.1272   90.1059    5.7693 F       1  UNL1       -0.2041
     14 C          59.4313   92.1396    4.3099 C.ar    1  UNL1        0.0311
     15 C          59.7580   93.1521    3.2525 C.ar    1  UNL1        0.0202
     16 C          61.1072   93.1434    2.5971 C.ar    1  UNL1        0.0864
     17 C          60.0140   95.0998    1.4014 C.3     1  UNL1        0.1222
     18 O          56.0079   90.4213   -3.3749 O.2     1  UNL1       -0.2707
     19 C          56.4531   91.7971   -2.9761 C.2     1  UNL1        0.2707
     20 C          56.0080   92.9890   -3.7704 C.3     1  UNL1        0.2897
     21 O          56.4531   94.3648   -3.3715 O.3     1  UNL1       -0.4643
     22 C          57.3433   94.5486   -2.1782 C.ar    1  UNL1        0.1526
     23 C          57.7885   95.9244   -1.7793 C.ar    1  UNL1        0.0379
     24 C          58.6787   96.1081   -0.5861 C.ar    1  UNL1        0.0006
     25 C          59.1237   94.9161    0.2082 C.ar    1  UNL1       -0.0007
     26 C          58.6786   93.5403   -0.1907 C.ar    1  UNL1        0.0152
     27 C          57.7884   93.3566   -1.3839 C.ar    1  UNL1        0.0846
     28 N          57.3433   91.9808   -1.7828 N.am    1  UNL1       -0.2785
     29 H          57.6354   91.1985   -1.2615 H       1  UNL1        0.1551
@<TRIPOS>BOND
     1    18    19    2
     2    19    20    1
     3    20    21    1
     4    21    22    1
     5    22    23   ar
     6    23    24   ar
     7    24    25   ar
     8    25    17    1
     9    17     1    1
    10     1     2    1
    11     2     3   ar
    12     3     4   ar
    13     4     5   ar
    14     5     6   ar
    15     6     7   ar
    16     7     8    1
    17     8     9    1
    18     9    10    1
    19    10    11   ar
    20    11    12   ar
    21    12    13    1
    22    12    14   ar
    23    14    15   ar
    24    15    16   ar
    25    25    26   ar
    26    26    27   ar
    27    27    28    1
    28    28    19   am
    29    27    22   ar
    30    16     1    1
    31     7     2   ar
    32    16    10   ar
    33    28    29    1
