@<TRIPOS>MOLECULE
*****
 32 35 0 0 0
SMALL
GASTEIGER

@<TRIPOS>ATOM
      1 C          65.2087   92.0816   12.4234 C.ar    1  UNL1       -0.0004
      2 C          64.8490   91.2565   13.6233 C.ar    1  UNL1       -0.0024
      3 C          63.7146   90.2781   13.5480 C.ar    1  UNL1       -0.0002
      4 C          62.9399   90.1247   12.2727 C.ar    1  UNL1        0.0030
      5 C          61.8054   89.1463   12.1974 C.ar    1  UNL1        0.0369
      6 C          61.0307   88.9929   10.9221 C.ar    1  UNL1        0.1386
      7 C          61.3905   89.8180    9.7221 C.ar    1  UNL1        0.0369
      8 C          62.5249   90.7964    9.7975 C.ar    1  UNL1        0.0031
      9 C          63.2996   90.9498   11.0728 C.ar    1  UNL1       -0.0001
     10 C          64.4340   91.9282   11.1482 C.ar    1  UNL1       -0.0024
     11 C          66.3432   93.0601   12.4988 C.3     1  UNL1        0.1240
     12 N          67.2840   93.0292   13.6666 N.ar    1  UNL1       -0.3045
     13 C          67.2076   93.9025   14.8837 C.ar    1  UNL1        0.0983
     14 C          68.3427   93.5326   15.7918 C.ar    1  UNL1        0.1193
     15 N          69.1207   92.4305   15.1359 N.ar    1  UNL1       -0.2223
     16 C          68.4664   92.1194   13.8225 C.ar    1  UNL1        0.1788
     17 C          66.5368   94.0694   11.4062 C.3     1  UNL1        0.0827
     18 C          65.8764   95.4130   11.5007 C.3     1  UNL1        0.0197
     19 N          67.3909   93.7353   10.2192 N.3     1  UNL1       -0.2708
     20 C          67.6703   94.7791    9.1787 C.3     1  UNL1        0.0897
     21 C          68.7424   91.9960    8.8416 C.3     1  UNL1        0.0188
     22 C          67.9654   92.3575   10.0726 C.3     1  UNL1        0.0722
     23 O          59.8963   88.0145   10.8467 O.3     1  UNL1       -0.4751
     24 C          59.7694   87.1030    9.6622 C.3     1  UNL1        0.2103
     25 C          60.9364   86.2638    9.2332 C.3     1  UNL1        0.0723
     26 C          61.9900   85.4732    8.5158 C.3     1  UNL1        0.0088
     27 C          62.9390   84.9280    9.5415 C.3     1  UNL1        0.0005
     28 C          62.4719   85.3816   10.8928 C.3     1  UNL1        0.0005
     29 C          61.2342   86.2072   10.7022 C.3     1  UNL1        0.0088
     30 C          60.3946   86.4958    7.8538 C.2     1  UNL1        0.0532
     31 O          60.4499   85.3991    6.8320 O.co2   1  UNL1       -0.5491
     32 O          59.7974   87.8246    7.4963 O.co2   1  UNL1       -0.5491
@<TRIPOS>UNITY_ATOM_ATTR
31 1
charge -1
@<TRIPOS>BOND
     1    21    22    1
     2    22    19    1
     3    19    20    1
     4    19    17    1
     5    17    18    1
     6    17    11    1
     7    11     1    1
     8     1     2   ar
     9     2     3   ar
    10     3     4   ar
    11     4     5   ar
    12     5     6   ar
    13     6    23    1
    14    23    24    1
    15    24    25    1
    16    25    30    1
    17    30    31   ar
    18    30    32   ar
    19    25    26    1
    20    26    27    1
    21    27    28    1
    22    28    29    1
    23     6     7   ar
    24     7     8   ar
    25     8     9   ar
    26     9    10   ar
    27    11    12    1
    28    12    13   ar
    29    13    14   ar
    30    14    15   ar
    31    15    16   ar
    32    10     1   ar
    33    16    12   ar
    34     9     4   ar
    35    29    25    1
@<TRIPOS>MOLECULE
*****
 32 35 0 0 0
SMALL
GASTEIGER

@<TRIPOS>ATOM
      1 C          63.5130   85.5172   12.8766 C.ar    1  UNL1       -0.0004
      2 C          64.2377   85.4824   14.1894 C.ar    1  UNL1       -0.0024
      3 C          64.5997   86.7636   14.8804 C.ar    1  UNL1       -0.0002
      4 C          64.2370   88.0796   14.2586 C.ar    1  UNL1        0.0030
      5 C          64.5991   89.3608   14.9496 C.ar    1  UNL1        0.0369
      6 C          64.2364   90.6768   14.3278 C.ar    1  UNL1        0.1386
      7 C          63.5116   90.7115   13.0149 C.ar    1  UNL1        0.0369
      8 C          63.1496   89.4303   12.3239 C.ar    1  UNL1        0.0031
      9 C          63.5123   88.1144   12.9457 C.ar    1  UNL1       -0.0001
     10 C          63.1503   86.8332   12.2547 C.ar    1  UNL1       -0.0024
     11 C          63.1510   84.2360   12.1855 C.3     1  UNL1        0.1240
     12 N          62.6092   83.0835   12.9781 N.ar    1  UNL1       -0.3045
     13 C          62.3667   81.6957   12.4631 C.ar    1  UNL1        0.0983
     14 C          61.8225   80.8709   13.5916 C.ar    1  UNL1        0.1193
     15 N          61.7287   81.7490   14.8041 N.ar    1  UNL1       -0.2223
     16 C          62.2149   83.1164   14.4250 C.ar    1  UNL1        0.1788
     17 C          63.3307   84.1074   10.7019 C.3     1  UNL1        0.0827
     18 C          64.2552   83.0650   10.1460 C.3     1  UNL1        0.0197
     19 N          62.5860   85.0210    9.7742 N.3     1  UNL1       -0.2708
     20 C          61.2715   85.6083   10.1952 C.3     1  UNL1        0.0897
     21 C          62.4481   84.8943    7.1829 C.3     1  UNL1        0.0188
     22 C          63.1557   85.3473    8.4255 C.3     1  UNL1        0.0722
     23 O          64.5984   91.9579   15.0188 O.3     1  UNL1       -0.4751
     24 C          65.5436   92.9217   14.3647 C.3     1  UNL1        0.2103
     25 C          67.0216   92.6703   14.4101 C.3     1  UNL1        0.0723
     26 C          68.4778   92.4289   14.1429 C.3     1  UNL1        0.0088
     27 C          69.1736   92.2841   15.4638 C.3     1  UNL1        0.0005
     28 C          68.1476   92.4359   16.5474 C.3     1  UNL1        0.0005
     29 C          66.8175   92.6746   15.8962 C.3     1  UNL1        0.0088
     30 C          66.9167   92.7186   12.9146 C.2     1  UNL1        0.0532
     31 O          65.7322   93.3720   12.2666 O.co2   1  UNL1       -0.5491
     32 O          67.9963   92.1134   12.0671 O.co2   1  UNL1       -0.5491
@<TRIPOS>UNITY_ATOM_ATTR
31 1
charge -1
@<TRIPOS>BOND
     1    21    22    1
     2    22    19    1
     3    19    20    1
     4    19    17    1
     5    17    18    1
     6    17    11    1
     7    11     1    1
     8     1     2   ar
     9     2     3   ar
    10     3     4   ar
    11     4     5   ar
    12     5     6   ar
    13     6    23    1
    14    23    24    1
    15    24    25    1
    16    25    30    1
    17    30    31   ar
    18    30    32   ar
    19    25    26    1
    20    26    27    1
    21    27    28    1
    22    28    29    1
    23     6     7   ar
    24     7     8   ar
    25     8     9   ar
    26     9    10   ar
    27    11    12    1
    28    12    13   ar
    29    13    14   ar
    30    14    15   ar
    31    15    16   ar
    32    10     1   ar
    33    16    12   ar
    34     9     4   ar
    35    29    25    1
@<TRIPOS>MOLECULE
*****
 32 35 0 0 0
SMALL
GASTEIGER

@<TRIPOS>ATOM
      1 C          65.0799   92.0281   12.1055 C.ar    1  UNL1       -0.0004
      2 C          64.8047   91.1746   13.3079 C.ar    1  UNL1       -0.0024
      3 C          63.7052   90.1551   13.2682 C.ar    1  UNL1       -0.0002
      4 C          62.8809   89.9890   12.0260 C.ar    1  UNL1        0.0030
      5 C          61.7813   88.9694   11.9864 C.ar    1  UNL1        0.0369
      6 C          60.9570   88.8033   10.7442 C.ar    1  UNL1        0.1386
      7 C          61.2323   89.6568    9.5418 C.ar    1  UNL1        0.0369
      8 C          62.3318   90.6764    9.5815 C.ar    1  UNL1        0.0031
      9 C          63.1561   90.8424   10.8236 C.ar    1  UNL1       -0.0001
     10 C          64.2556   91.8620   10.8633 C.ar    1  UNL1       -0.0024
     11 C          66.1794   93.0477   12.1452 C.3     1  UNL1        0.1240
     12 N          66.4695   93.8853   10.9351 N.ar    1  UNL1       -0.3045
     13 C          67.3585   93.5015    9.7896 C.ar    1  UNL1        0.0983
     14 C          67.3600   94.6328    8.8046 C.ar    1  UNL1        0.1193
     15 N          66.4718   95.7158    9.3414 N.ar    1  UNL1       -0.2223
     16 C          65.9215   95.2539   10.6581 C.ar    1  UNL1        0.1788
     17 C          66.9888   93.2296   13.3948 C.3     1  UNL1        0.0827
     18 C          66.7945   94.4514   14.2431 C.3     1  UNL1        0.0197
     19 N          67.9925   92.1897   13.7964 N.3     1  UNL1       -0.2708
     20 C          68.9281   91.6160   12.7738 C.3     1  UNL1        0.0897
     21 C          68.9511   92.4301   16.1991 C.3     1  UNL1        0.0188
     22 C          68.0607   91.7235   15.2204 C.3     1  UNL1        0.0722
     23 O          59.8575   87.7838   10.7045 O.3     1  UNL1       -0.4751
     24 C          59.7309   86.8627    9.5273 C.3     1  UNL1        0.2103
     25 C          60.9311   86.1140    9.0284 C.3     1  UNL1        0.0723
     26 C          62.0005   85.4088    8.2479 C.3     1  UNL1        0.0088
     27 C          63.0363   84.9210    9.2169 C.3     1  UNL1        0.0005
     28 C          62.6071   85.3246   10.5964 C.3     1  UNL1        0.0005
     29 C          61.3060   86.0619   10.4799 C.3     1  UNL1        0.0088
     30 C          60.3053   86.3226    7.6813 C.2     1  UNL1        0.0532
     31 O          60.3425   85.2255    6.6590 O.co2   1  UNL1       -0.5491
     32 O          59.6422   87.6282    7.3565 O.co2   1  UNL1       -0.5491
@<TRIPOS>UNITY_ATOM_ATTR
31 1
charge -1
@<TRIPOS>BOND
     1    21    22    1
     2    22    19    1
     3    19    20    1
     4    19    17    1
     5    17    18    1
     6    17    11    1
     7    11     1    1
     8     1     2   ar
     9     2     3   ar
    10     3     4   ar
    11     4     5   ar
    12     5     6   ar
    13     6    23    1
    14    23    24    1
    15    24    25    1
    16    25    30    1
    17    30    31   ar
    18    30    32   ar
    19    25    26    1
    20    26    27    1
    21    27    28    1
    22    28    29    1
    23     6     7   ar
    24     7     8   ar
    25     8     9   ar
    26     9    10   ar
    27    11    12    1
    28    12    13   ar
    29    13    14   ar
    30    14    15   ar
    31    15    16   ar
    32    10     1   ar
    33    16    12   ar
    34     9     4   ar
    35    29    25    1
@<TRIPOS>MOLECULE
*****
 32 35 0 0 0
SMALL
GASTEIGER

@<TRIPOS>ATOM
      1 C          62.4287   88.0332   10.3813 C.ar    1  UNL1       -0.0004
      2 C          62.4393   89.4660    9.9376 C.ar    1  UNL1       -0.0024
      3 C          62.9441   90.5337   10.8623 C.ar    1  UNL1       -0.0002
      4 C          63.4383   90.1686   12.2307 C.ar    1  UNL1        0.0030
      5 C          63.9431   91.2364   13.1554 C.ar    1  UNL1        0.0369
      6 C          64.4373   90.8713   14.5238 C.ar    1  UNL1        0.1386
      7 C          64.4266   89.4384   14.9675 C.ar    1  UNL1        0.0369
      8 C          63.9218   88.3707   14.0428 C.ar    1  UNL1        0.0031
      9 C          63.4277   88.7358   12.6744 C.ar    1  UNL1       -0.0001
     10 C          62.9229   87.6681   11.7497 C.ar    1  UNL1       -0.0024
     11 C          61.9239   86.9654    9.4566 C.3     1  UNL1        0.1240
     12 N          60.6687   87.1895    8.6664 N.ar    1  UNL1       -0.3045
     13 C          60.0758   88.5210    8.3121 C.ar    1  UNL1        0.0983
     14 C          58.8268   88.2759    7.5185 C.ar    1  UNL1        0.1193
     15 N          58.6477   86.7928    7.3823 N.ar    1  UNL1       -0.2223
     16 C          59.7861   86.1214    8.0918 C.ar    1  UNL1        0.1788
     17 C          62.6742   85.6735    9.3221 C.3     1  UNL1        0.0827
     18 C          63.2255   85.2616    7.9892 C.3     1  UNL1        0.0197
     19 N          62.8732   84.7935   10.5204 N.3     1  UNL1       -0.2708
     20 C          61.8952   84.8413   11.6568 C.3     1  UNL1        0.0897
     21 C          63.8533   82.3908   10.3939 C.3     1  UNL1        0.0188
     22 C          64.0502   83.8658   10.5824 C.3     1  UNL1        0.0722
     23 O          64.9421   91.9390   15.4485 O.3     1  UNL1       -0.4751
     24 C          65.7979   93.0497   14.9155 C.3     1  UNL1        0.2103
     25 C          67.2650   92.8272   14.6967 C.3     1  UNL1        0.0723
     26 C          68.6636   92.6675   14.1785 C.3     1  UNL1        0.0088
     27 C          69.5494   92.3145   15.3364 C.3     1  UNL1        0.0005
     28 C          68.6984   92.2560   16.5702 C.3     1  UNL1        0.0005
     29 C          67.2865   92.5728   16.1748 C.3     1  UNL1        0.0088
     30 C          66.9368   93.1280   13.2643 C.2     1  UNL1        0.0532
     31 O          65.9424   94.2008   12.9321 O.co2   1  UNL1       -0.5491
     32 O          67.6029   92.3561   12.1642 O.co2   1  UNL1       -0.5491
@<TRIPOS>UNITY_ATOM_ATTR
31 1
charge -1
@<TRIPOS>BOND
     1    21    22    1
     2    22    19    1
     3    19    20    1
     4    19    17    1
     5    17    18    1
     6    17    11    1
     7    11     1    1
     8     1     2   ar
     9     2     3   ar
    10     3     4   ar
    11     4     5   ar
    12     5     6   ar
    13     6    23    1
    14    23    24    1
    15    24    25    1
    16    25    30    1
    17    30    31   ar
    18    30    32   ar
    19    25    26    1
    20    26    27    1
    21    27    28    1
    22    28    29    1
    23     6     7   ar
    24     7     8   ar
    25     8     9   ar
    26     9    10   ar
    27    11    12    1
    28    12    13   ar
    29    13    14   ar
    30    14    15   ar
    31    15    16   ar
    32    10     1   ar
    33    16    12   ar
    34     9     4   ar
    35    29    25    1
@<TRIPOS>MOLECULE
*****
 32 35 0 0 0
SMALL
GASTEIGER

@<TRIPOS>ATOM
      1 C          62.3258   88.1848   10.6471 C.ar    1  UNL1       -0.0004
      2 C          62.3756   89.5155    9.9568 C.ar    1  UNL1       -0.0024
      3 C          62.9935   90.6955   10.6465 C.ar    1  UNL1       -0.0002
      4 C          63.5615   90.5448   12.0266 C.ar    1  UNL1        0.0030
      5 C          64.1793   91.7249   12.7164 C.ar    1  UNL1        0.0369
      6 C          64.7474   91.5742   14.0964 C.ar    1  UNL1        0.1386
      7 C          64.6975   90.2434   14.7868 C.ar    1  UNL1        0.0369
      8 C          64.0797   89.0634   14.0970 C.ar    1  UNL1        0.0031
      9 C          63.5117   89.2141   12.7169 C.ar    1  UNL1       -0.0001
     10 C          62.8939   88.0341   12.0272 C.ar    1  UNL1       -0.0024
     11 C          61.7080   87.0047    9.9574 C.3     1  UNL1        0.1240
     12 N          60.5995   87.2100    8.9679 N.ar    1  UNL1       -0.3045
     13 C          60.1183   88.5308    8.4445 C.ar    1  UNL1        0.0983
     14 C          58.9990   88.2678    7.4812 C.ar    1  UNL1        0.1193
     15 N          58.7884   86.7844    7.4093 N.ar    1  UNL1       -0.2223
     16 C          59.7775   86.1307    8.3281 C.ar    1  UNL1        0.1788
     17 C          62.1987   85.6193   10.2571 C.3     1  UNL1        0.0827
     18 C          61.8246   84.9541   11.5485 C.3     1  UNL1        0.0197
     19 N          63.0634   84.8989    9.2654 N.3     1  UNL1       -0.2708
     20 C          63.8256   83.6765    9.6836 C.3     1  UNL1        0.0897
     21 C          62.4791   84.6631    6.7449 C.3     1  UNL1        0.0188
     22 C          63.1659   85.4010    7.8557 C.3     1  UNL1        0.0722
     23 O          65.3652   92.7542   14.7862 O.3     1  UNL1       -0.4751
     24 C          66.5303   93.4629   14.1613 C.3     1  UNL1        0.2103
     25 C          67.4859   92.7075   13.2860 C.3     1  UNL1        0.0723
     26 C          68.5868   91.8879   12.6810 C.3     1  UNL1        0.0088
     27 C          68.3722   91.8467   11.1970 C.3     1  UNL1        0.0005
     28 C          67.1386   92.6410   10.8848 C.3     1  UNL1        0.0005
     29 C          66.5908   93.1730   12.1759 C.3     1  UNL1        0.0088
     30 C          68.1811   92.4000   14.5791 C.2     1  UNL1        0.0532
     31 O          67.9216   91.0991   15.2793 O.co2   1  UNL1       -0.5491
     32 O          69.1358   93.3934   15.1720 O.co2   1  UNL1       -0.5491
@<TRIPOS>UNITY_ATOM_ATTR
31 1
charge -1
@<TRIPOS>BOND
     1    21    22    1
     2    22    19    1
     3    19    20    1
     4    19    17    1
     5    17    18    1
     6    17    11    1
     7    11     1    1
     8     1     2   ar
     9     2     3   ar
    10     3     4   ar
    11     4     5   ar
    12     5     6   ar
    13     6    23    1
    14    23    24    1
    15    24    25    1
    16    25    30    1
    17    30    31   ar
    18    30    32   ar
    19    25    26    1
    20    26    27    1
    21    27    28    1
    22    28    29    1
    23     6     7   ar
    24     7     8   ar
    25     8     9   ar
    26     9    10   ar
    27    11    12    1
    28    12    13   ar
    29    13    14   ar
    30    14    15   ar
    31    15    16   ar
    32    10     1   ar
    33    16    12   ar
    34     9     4   ar
    35    29    25    1
@<TRIPOS>MOLECULE
*****
 32 35 0 0 0
SMALL
GASTEIGER

@<TRIPOS>ATOM
      1 C          62.5218   87.5499   10.6612 C.ar    1  UNL1       -0.0004
      2 C          62.4107   88.9046   10.0270 C.ar    1  UNL1       -0.0024
      3 C          62.8551   90.1237   10.7796 C.ar    1  UNL1       -0.0002
      4 C          63.4104   89.9879   12.1664 C.ar    1  UNL1        0.0030
      5 C          63.8547   91.2071   12.9190 C.ar    1  UNL1        0.0369
      6 C          64.4101   91.0714   14.3058 C.ar    1  UNL1        0.1386
      7 C          64.5211   89.7165   14.9400 C.ar    1  UNL1        0.0369
      8 C          64.0767   88.4974   14.1873 C.ar    1  UNL1        0.0031
      9 C          63.5214   88.6332   12.8006 C.ar    1  UNL1       -0.0001
     10 C          63.0771   87.4141   12.0479 C.ar    1  UNL1       -0.0024
     11 C          62.0774   86.3307    9.9085 C.3     1  UNL1        0.1240
     12 N          62.6589   84.9892   10.2435 N.ar    1  UNL1       -0.3045
     13 C          62.4088   84.2085   11.4996 C.ar    1  UNL1        0.0983
     14 C          63.1880   82.9297   11.4136 C.ar    1  UNL1        0.1193
     15 N          63.9197   82.9200   10.1043 N.ar    1  UNL1       -0.2223
     16 C          63.5928   84.1928    9.3811 C.ar    1  UNL1        0.1788
     17 C          61.0516   86.4531    8.8210 C.3     1  UNL1        0.0827
     18 C          61.2102   85.6738    7.5492 C.3     1  UNL1        0.0197
     19 N          59.8672   87.3549    9.0053 N.3     1  UNL1       -0.2708
     20 C          59.4761   87.8077   10.3809 C.3     1  UNL1        0.0897
     21 C          59.4489   89.0659    7.0955 C.3     1  UNL1        0.0188
     22 C          59.0738   87.8038    7.8141 C.3     1  UNL1        0.0722
     23 O          64.8544   92.2904   15.0584 O.3     1  UNL1       -0.4751
     24 C          65.8779   93.2095   14.4603 C.3     1  UNL1        0.2103
     25 C          67.3252   92.8155   14.4507 C.3     1  UNL1        0.0723
     26 C          68.7417   92.4407   14.1296 C.3     1  UNL1        0.0088
     27 C          69.4619   92.1996   15.4231 C.3     1  UNL1        0.0005
     28 C          68.4906   92.4253   16.5436 C.3     1  UNL1        0.0005
     29 C          67.1700   92.8060   15.9426 C.3     1  UNL1        0.0088
     30 C          67.1778   92.9074   12.9608 C.2     1  UNL1        0.0532
     31 O          68.0585   92.0846   12.0678 O.co2   1  UNL1       -0.5491
     32 O          66.1497   93.8220   12.3638 O.co2   1  UNL1       -0.5491
@<TRIPOS>UNITY_ATOM_ATTR
31 1
charge -1
@<TRIPOS>BOND
     1    21    22    1
     2    22    19    1
     3    19    20    1
     4    19    17    1
     5    17    18    1
     6    17    11    1
     7    11     1    1
     8     1     2   ar
     9     2     3   ar
    10     3     4   ar
    11     4     5   ar
    12     5     6   ar
    13     6    23    1
    14    23    24    1
    15    24    25    1
    16    25    30    1
    17    30    31   ar
    18    30    32   ar
    19    25    26    1
    20    26    27    1
    21    27    28    1
    22    28    29    1
    23     6     7   ar
    24     7     8   ar
    25     8     9   ar
    26     9    10   ar
    27    11    12    1
    28    12    13   ar
    29    13    14   ar
    30    14    15   ar
    31    15    16   ar
    32    10     1   ar
    33    16    12   ar
    34     9     4   ar
    35    29    25    1
@<TRIPOS>MOLECULE
*****
 32 35 0 0 0
SMALL
GASTEIGER

@<TRIPOS>ATOM
      1 C          61.3729   93.2537    2.1281 C.ar    1  UNL1       -0.0004
      2 C          62.5012   92.4011    2.6279 C.ar    1  UNL1       -0.0024
      3 C          62.2609   91.4070    3.7252 C.ar    1  UNL1       -0.0002
      4 C          60.8922   91.2655    4.3225 C.ar    1  UNL1        0.0030
      5 C          60.6519   90.2713    5.4198 C.ar    1  UNL1        0.0369
      6 C          59.2833   90.1298    6.0171 C.ar    1  UNL1        0.1386
      7 C          58.1549   90.9825    5.5171 C.ar    1  UNL1        0.0369
      8 C          58.3953   91.9766    4.4199 C.ar    1  UNL1        0.0031
      9 C          59.7639   92.1181    3.8226 C.ar    1  UNL1       -0.0001
     10 C          60.0043   93.1122    2.7254 C.ar    1  UNL1       -0.0024
     11 C          61.6133   94.2479    1.0308 C.3     1  UNL1        0.1240
     12 N          62.9779   94.8414    0.8421 N.ar    1  UNL1       -0.3045
     13 C          63.9680   94.4567   -0.2169 C.ar    1  UNL1        0.0983
     14 C          65.1940   95.3013   -0.0342 C.ar    1  UNL1        0.1193
     15 N          64.9616   96.2081    1.1379 N.ar    1  UNL1       -0.2223
     16 C          63.5920   95.9239    1.6795 C.ar    1  UNL1        0.1788
     17 C          60.4890   94.6485    0.1222 C.3     1  UNL1        0.0827
     18 C          59.7351   95.9199    0.3775 C.3     1  UNL1        0.0197
     19 N          60.1187   93.7777   -1.0417 N.3     1  UNL1       -0.2708
     20 C          60.6991   94.0512   -2.3976 C.3     1  UNL1        0.0897
     21 C          57.6924   92.8903   -0.7668 C.3     1  UNL1        0.0188
     22 C          59.1679   92.6335   -0.8497 C.3     1  UNL1        0.0722
     23 O          59.0429   89.1357    7.1143 O.3     1  UNL1       -0.4751
     24 C          59.7303   89.2984    8.4376 C.3     1  UNL1        0.2103
     25 C          60.6971   88.2552    8.9139 C.3     1  UNL1        0.0723
     26 C          61.7704   87.4420    9.5747 C.3     1  UNL1        0.0088
     27 C          61.7224   86.0571    9.0004 C.3     1  UNL1        0.0005
     28 C          60.6196   86.0144    7.9847 C.3     1  UNL1        0.0005
     29 C          59.9858   87.3729    7.9312 C.3     1  UNL1        0.0088
     30 C          61.2063   89.3556    9.7969 C.2     1  UNL1        0.0532
     31 O          62.6652   89.4294   10.1379 O.co2   1  UNL1       -0.5491
     32 O          60.2565   90.3822   10.3391 O.co2   1  UNL1       -0.5491
@<TRIPOS>UNITY_ATOM_ATTR
31 1
charge -1
@<TRIPOS>BOND
     1    21    22    1
     2    22    19    1
     3    19    20    1
     4    19    17    1
     5    17    18    1
     6    17    11    1
     7    11     1    1
     8     1     2   ar
     9     2     3   ar
    10     3     4   ar
    11     4     5   ar
    12     5     6   ar
    13     6    23    1
    14    23    24    1
    15    24    25    1
    16    25    30    1
    17    30    31   ar
    18    30    32   ar
    19    25    26    1
    20    26    27    1
    21    27    28    1
    22    28    29    1
    23     6     7   ar
    24     7     8   ar
    25     8     9   ar
    26     9    10   ar
    27    11    12    1
    28    12    13   ar
    29    13    14   ar
    30    14    15   ar
    31    15    16   ar
    32    10     1   ar
    33    16    12   ar
    34     9     4   ar
    35    29    25    1
@<TRIPOS>MOLECULE
*****
 32 35 0 0 0
SMALL
GASTEIGER

@<TRIPOS>ATOM
      1 C          63.1297   85.3720   12.8671 C.ar    1  UNL1       -0.0004
      2 C          62.5001   86.0855   11.7076 C.ar    1  UNL1       -0.0024
      3 C          62.6143   87.5767   11.5930 C.ar    1  UNL1       -0.0002
      4 C          63.3582   88.3544   12.6379 C.ar    1  UNL1        0.0030
      5 C          63.4724   89.8457   12.5233 C.ar    1  UNL1        0.0369
      6 C          64.2163   90.6235   13.5682 C.ar    1  UNL1        0.1386
      7 C          64.8459   89.9099   14.7277 C.ar    1  UNL1        0.0369
      8 C          64.7317   88.4187   14.8423 C.ar    1  UNL1        0.0031
      9 C          63.9878   87.6409   13.7974 C.ar    1  UNL1       -0.0001
     10 C          63.8736   86.1497   13.9120 C.ar    1  UNL1       -0.0024
     11 C          63.0155   83.8807   12.9817 C.3     1  UNL1        0.1240
     12 N          63.4145   83.0072   11.8294 N.ar    1  UNL1       -0.3045
     13 C          62.6769   81.7939   11.3460 C.ar    1  UNL1        0.0983
     14 C          63.4276   81.2305   10.1760 C.ar    1  UNL1        0.1193
     15 N          64.6294   82.0956    9.9363 N.ar    1  UNL1       -0.2223
     16 C          64.6212   83.1936   10.9581 C.ar    1  UNL1        0.1788
     17 C          62.5024   83.2630   14.2486 C.3     1  UNL1        0.0827
     18 C          62.2261   84.1248   15.4449 C.3     1  UNL1        0.0197
     19 N          62.2654   81.7835   14.3192 N.3     1  UNL1       -0.2708
     20 C          63.4255   80.8445   14.4693 C.3     1  UNL1        0.0897
     21 C          60.6429   79.7711   14.0594 C.3     1  UNL1        0.0188
     22 C          60.8685   81.2430   14.2397 C.3     1  UNL1        0.0722
     23 O          64.3305   92.1147   13.4536 O.3     1  UNL1       -0.4751
     24 C          65.6185   92.7356   13.0001 C.3     1  UNL1        0.2103
     25 C          66.8790   92.5015   13.7787 C.3     1  UNL1        0.0723
     26 C          68.2595   92.1924   14.2775 C.3     1  UNL1        0.0088
     27 C          68.2752   92.4085   15.7617 C.3     1  UNL1        0.0005
     28 C          66.9045   92.8510   16.1804 C.3     1  UNL1        0.0005
     29 C          66.0416   92.9084   14.9548 C.3     1  UNL1        0.0088
     30 C          67.4529   92.1434   12.4399 C.2     1  UNL1        0.0532
     31 O          66.6512   92.3764   11.1937 O.co2   1  UNL1       -0.5491
     32 O          68.8284   91.5524   12.3473 O.co2   1  UNL1       -0.5491
@<TRIPOS>UNITY_ATOM_ATTR
31 1
charge -1
@<TRIPOS>BOND
     1    21    22    1
     2    22    19    1
     3    19    20    1
     4    19    17    1
     5    17    18    1
     6    17    11    1
     7    11     1    1
     8     1     2   ar
     9     2     3   ar
    10     3     4   ar
    11     4     5   ar
    12     5     6   ar
    13     6    23    1
    14    23    24    1
    15    24    25    1
    16    25    30    1
    17    30    31   ar
    18    30    32   ar
    19    25    26    1
    20    26    27    1
    21    27    28    1
    22    28    29    1
    23     6     7   ar
    24     7     8   ar
    25     8     9   ar
    26     9    10   ar
    27    11    12    1
    28    12    13   ar
    29    13    14   ar
    30    14    15   ar
    31    15    16   ar
    32    10     1   ar
    33    16    12   ar
    34     9     4   ar
    35    29    25    1
@<TRIPOS>MOLECULE
*****
 32 35 0 0 0
SMALL
GASTEIGER

@<TRIPOS>ATOM
      1 C          62.5203   87.6981   10.6733 C.ar    1  UNL1       -0.0004
      2 C          62.4601   89.0158    9.9593 C.ar    1  UNL1       -0.0024
      3 C          62.9627   90.2578   10.6336 C.ar    1  UNL1       -0.0002
      4 C          63.5256   90.1821   12.0219 C.ar    1  UNL1        0.0030
      5 C          64.0283   91.4242   12.6962 C.ar    1  UNL1        0.0369
      6 C          64.5911   91.3484   14.0845 C.ar    1  UNL1        0.1386
      7 C          64.6514   90.0305   14.7986 C.ar    1  UNL1        0.0369
      8 C          64.1487   88.7886   14.1242 C.ar    1  UNL1        0.0031
      9 C          63.5858   88.8643   12.7359 C.ar    1  UNL1       -0.0001
     10 C          63.0832   87.6223   12.0616 C.ar    1  UNL1       -0.0024
     11 C          62.0177   86.4560    9.9990 C.3     1  UNL1        0.1240
     12 N          62.5555   85.1146   10.4006 N.ar    1  UNL1       -0.3045
     13 C          63.5172   84.2776    9.6102 C.ar    1  UNL1        0.0983
     14 C          63.7822   83.0204   10.3842 C.ar    1  UNL1        0.1193
     15 N          62.9843   83.0802   11.6529 N.ar    1  UNL1       -0.2223
     16 C          62.2262   84.3745   11.6630 C.ar    1  UNL1        0.1788
     17 C          60.9772   86.5554    8.9231 C.3     1  UNL1        0.0827
     18 C          61.1041   85.7281    7.6782 C.3     1  UNL1        0.0197
     19 N          59.8097   87.4819    9.0921 N.3     1  UNL1       -0.2708
     20 C          59.4566   88.0029   10.4537 C.3     1  UNL1        0.0897
     21 C          59.3886   89.0928    7.0977 C.3     1  UNL1        0.0188
     22 C          58.9955   87.8876    7.8995 C.3     1  UNL1        0.0722
     23 O          65.0938   92.5904   14.7589 O.3     1  UNL1       -0.4751
     24 C          66.2140   93.3764   14.1445 C.3     1  UNL1        0.2103
     25 C          67.2838   92.6726   13.3635 C.3     1  UNL1        0.0723
     26 C          68.4787   91.9150   12.8651 C.3     1  UNL1        0.0088
     27 C          68.3958   91.8511   11.3688 C.3     1  UNL1        0.0005
     28 C          67.1498   92.5692   10.9424 C.3     1  UNL1        0.0005
     29 C          66.4626   93.0769   12.1752 C.3     1  UNL1        0.0088
     30 C          67.8814   92.4155   14.7151 C.2     1  UNL1        0.0532
     31 O          68.4299   93.5550   15.5217 O.co2   1  UNL1       -0.5491
     32 O          67.9305   91.0188   15.2600 O.co2   1  UNL1       -0.5491
@<TRIPOS>UNITY_ATOM_ATTR
31 1
charge -1
@<TRIPOS>BOND
     1    21    22    1
     2    22    19    1
     3    19    20    1
     4    19    17    1
     5    17    18    1
     6    17    11    1
     7    11     1    1
     8     1     2   ar
     9     2     3   ar
    10     3     4   ar
    11     4     5   ar
    12     5     6   ar
    13     6    23    1
    14    23    24    1
    15    24    25    1
    16    25    30    1
    17    30    31   ar
    18    30    32   ar
    19    25    26    1
    20    26    27    1
    21    27    28    1
    22    28    29    1
    23     6     7   ar
    24     7     8   ar
    25     8     9   ar
    26     9    10   ar
    27    11    12    1
    28    12    13   ar
    29    13    14   ar
    30    14    15   ar
    31    15    16   ar
    32    10     1   ar
    33    16    12   ar
    34     9     4   ar
    35    29    25    1
