@<TRIPOS>MOLECULE
*****
 47 50 0 0 0
SMALL
GASTEIGER

@<TRIPOS>ATOM
      1 N          60.1123   88.4018    9.5592 N.ar    1  UNL1       -0.2470
      2 C          60.7751   87.0564    9.5833 C.ar    1  UNL1        0.2657
      3 O          60.3261   85.9821    8.6376 O.2     1  UNL1       -0.2668
      4 C          61.8868   86.7853   10.5530 C.ar    1  UNL1        0.0759
      5 C          62.3358   87.8595   11.4987 C.ar    1  UNL1        0.0848
      6 N          61.6731   89.2049   11.4747 N.ar    1  UNL1       -0.2755
      7 C          60.5613   89.4760   10.5049 C.ar    1  UNL1        0.3341
      8 O          59.8985   90.8215   10.4808 O.2     1  UNL1       -0.2462
      9 C          62.5497   85.4398   10.5771 C.ar    1  UNL1        0.0366
     10 C          63.2782   84.9409    9.3646 C.ar    1  UNL1        0.0026
     11 C          63.9410   83.5955    9.3886 C.ar    1  UNL1        0.0033
     12 C          63.8753   82.7490   10.6252 C.ar    1  UNL1        0.0392
     13 C          63.1467   83.2479   11.8378 C.ar    1  UNL1        0.1658
     14 C          62.4839   84.5934   11.8137 C.ar    1  UNL1        0.1739
     15 F          61.7553   85.0923   13.0262 F       1  UNL1       -0.2010
     16 O          63.0809   82.4015   13.0744 O.3     1  UNL1       -0.4732
     17 C          63.5125   82.9677   14.3946 C.3     1  UNL1        0.2055
     18 C          64.8311   83.6729   14.5132 C.3     1  UNL1        0.0473
     19 C          64.8772   85.1706   14.5812 C.3     1  UNL1        0.0042
     20 C          63.8089   85.9210   15.3200 C.3     1  UNL1        0.0060
     21 C          63.7168   85.8186   16.8137 C.3     1  UNL1        0.0417
     22 C          62.4787   86.2822   17.5223 C.2     1  UNL1        0.0503
     23 O          61.1378   86.1283   16.8677 O.co2   1  UNL1       -0.5492
     24 O          62.5814   86.8996   18.8855 O.co2   1  UNL1       -0.5492
     25 C          59.0005   88.6729    8.5895 C.3     1  UNL1        0.1334
     26 N          59.5341   87.1763    6.5339 N.3     1  UNL1       -0.3172
     27 C          59.2385   88.5269    7.1157 C.3     1  UNL1        0.0968
     28 H          59.5344   86.4784    7.2777 H       1  UNL1        0.1192
     29 H          60.4489   87.1932    6.0831 H       1  UNL1        0.1192
     30 C          59.1808   89.7315    6.2237 C.ar    1  UNL1       -0.0063
     31 C          60.4460   90.3130    5.6659 C.ar    1  UNL1       -0.0029
     32 C          60.3883   91.5175    4.7739 C.ar    1  UNL1       -0.0003
     33 C          59.0654   92.1406    4.4397 C.ar    1  UNL1       -0.0000
     34 C          57.8002   91.5592    4.9975 C.ar    1  UNL1       -0.0003
     35 C          57.8579   90.3546    5.8895 C.ar    1  UNL1       -0.0029
     36 C          62.1221   90.2792   12.4204 C.3     1  UNL1        0.1394
     37 C          63.4761   90.9038   12.2576 C.ar    1  UNL1        0.0319
     38 C          63.8264   91.6137   10.9834 C.ar    1  UNL1        0.1379
     39 F          62.8226   91.6990    9.8721 F       1  UNL1       -0.2044
     40 C          65.1804   92.2382   10.8207 C.ar    1  UNL1        0.0294
     41 C          66.1842   92.1529   11.9321 C.ar    1  UNL1        0.0022
     42 C          65.8340   91.4431   13.2062 C.ar    1  UNL1        0.0037
     43 C          64.4799   90.8184   13.3690 C.ar    1  UNL1        0.0714
     44 C          64.1297   90.1086   14.6431 C.3     1  UNL1        0.4184
     45 F          63.7795   89.3987   15.9172 F       1  UNL1       -0.1659
     46 F          64.5351   88.8025   14.0268 F       1  UNL1       -0.1659
     47 F          63.7243   91.4147   15.2593 F       1  UNL1       -0.1659
@<TRIPOS>UNITY_ATOM_ATTR
23 1
charge -1
@<TRIPOS>BOND
     1    27    26    1
     2    27    25    1
     3    25     1    1
     4     1     2   ar
     5     2     3    2
     6     2     4   ar
     7     4     9    1
     8     9    10   ar
     9    10    11   ar
    10    11    12   ar
    11    12    13   ar
    12    13    16    1
    13    16    17    1
    14    17    18    1
    15    18    19    1
    16    19    20    1
    17    20    21    1
    18    21    22    1
    19    22    23   ar
    20    22    24   ar
    21    13    14   ar
    22    14    15    1
    23     4     5   ar
    24     5     6   ar
    25     6    36    1
    26    36    37    1
    27    37    38   ar
    28    38    39    1
    29    38    40   ar
    30    40    41   ar
    31    41    42   ar
    32    42    43   ar
    33    43    44    1
    34    44    45    1
    35    44    46    1
    36    44    47    1
    37     6     7   ar
    38     7     8    2
    39    27    30    1
    40    30    31   ar
    41    31    32   ar
    42    32    33   ar
    43    33    34   ar
    44    34    35   ar
    45     7     1   ar
    46    35    30   ar
    47    14     9   ar
    48    43    37   ar
    49    26    28    1
    50    26    29    1
@<TRIPOS>MOLECULE
*****
 47 50 0 0 0
SMALL
GASTEIGER

@<TRIPOS>ATOM
      1 N          63.6380   85.8786   13.4387 N.ar    1  UNL1       -0.2470
      2 C          63.1407   85.4995   12.0753 C.ar    1  UNL1        0.2657
      3 O          63.1488   84.0620   11.6469 O.2     1  UNL1       -0.2668
      4 C          62.6352   86.5578   11.1403 C.ar    1  UNL1        0.0759
      5 C          62.6270   87.9953   11.5687 C.ar    1  UNL1        0.0848
      6 N          63.1244   88.3745   12.9321 N.ar    1  UNL1       -0.2755
      7 C          63.6299   87.3161   13.8671 C.ar    1  UNL1        0.3341
      8 O          64.1273   87.6951   15.2306 O.2     1  UNL1       -0.2462
      9 C          62.1378   86.1788    9.7769 C.ar    1  UNL1        0.0366
     10 C          63.0023   85.3609    8.8638 C.ar    1  UNL1        0.0026
     11 C          62.5050   84.9818    7.5004 C.ar    1  UNL1        0.0033
     12 C          61.1431   85.4206    7.0500 C.ar    1  UNL1        0.0392
     13 C          60.2786   86.2385    7.9631 C.ar    1  UNL1        0.1658
     14 C          60.7759   86.6175    9.3265 C.ar    1  UNL1        0.1739
     15 F          59.9114   87.4354   10.2396 F       1  UNL1       -0.2010
     16 O          58.9167   86.6773    7.5127 O.3     1  UNL1       -0.4732
     17 C          58.6007   88.1388    7.3947 C.3     1  UNL1        0.2055
     18 C          59.5249   89.0474    6.6396 C.3     1  UNL1        0.0473
     19 C          58.9727   90.2207    5.8856 C.3     1  UNL1        0.0042
     20 C          59.9024   91.1676    5.1863 C.3     1  UNL1        0.0060
     21 C          59.3485   92.2582    4.3180 C.3     1  UNL1        0.0417
     22 C          60.1148   92.7207    3.1144 C.2     1  UNL1        0.0503
     23 O          61.5817   92.4282    3.0013 O.co2   1  UNL1       -0.5492
     24 O          59.4143   93.4756    2.0237 O.co2   1  UNL1       -0.5492
     25 C          64.1435   84.8201   14.3738 C.3     1  UNL1        0.1334
     26 N          62.5629   84.3723   16.3864 N.3     1  UNL1       -0.3172
     27 C          63.1743   83.9278   15.0909 C.3     1  UNL1        0.0968
     28 H          62.9155   85.2982   16.6288 H       1  UNL1        0.1192
     29 H          62.8091   83.7112   17.1231 H       1  UNL1        0.1192
     30 C          62.8165   82.5908   14.5123 C.ar    1  UNL1       -0.0063
     31 C          61.3901   82.1270   14.5219 C.ar    1  UNL1       -0.0029
     32 C          61.0323   80.7901   13.9435 C.ar    1  UNL1       -0.0003
     33 C          62.1009   79.9171   13.3554 C.ar    1  UNL1       -0.0000
     34 C          63.5273   80.3809   13.3458 C.ar    1  UNL1       -0.0003
     35 C          63.8851   81.7178   13.9243 C.ar    1  UNL1       -0.0029
     36 C          63.1162   89.8120   13.3605 C.3     1  UNL1        0.1394
     37 C          64.0549   90.7908   12.7198 C.ar    1  UNL1        0.0319
     38 C          65.2792   91.2481   13.4561 C.ar    1  UNL1        0.1379
     39 F          65.5648   90.7264   14.8331 F       1  UNL1       -0.2044
     40 C          66.2179   92.2270   12.8153 C.ar    1  UNL1        0.0294
     41 C          65.9323   92.7487   11.4382 C.ar    1  UNL1        0.0022
     42 C          64.7081   92.2915   10.7019 C.ar    1  UNL1        0.0037
     43 C          63.7693   91.3125   11.3427 C.ar    1  UNL1        0.0714
     44 C          62.5451   90.8553   10.6064 C.3     1  UNL1        0.4184
     45 F          61.3209   90.3981    9.8701 F       1  UNL1       -0.1659
     46 F          63.4118   90.2156    9.5626 F       1  UNL1       -0.1659
     47 F          61.6784   91.4951   11.6502 F       1  UNL1       -0.1659
@<TRIPOS>UNITY_ATOM_ATTR
23 1
charge -1
@<TRIPOS>BOND
     1    27    26    1
     2    27    25    1
     3    25     1    1
     4     1     2   ar
     5     2     3    2
     6     2     4   ar
     7     4     9    1
     8     9    10   ar
     9    10    11   ar
    10    11    12   ar
    11    12    13   ar
    12    13    16    1
    13    16    17    1
    14    17    18    1
    15    18    19    1
    16    19    20    1
    17    20    21    1
    18    21    22    1
    19    22    23   ar
    20    22    24   ar
    21    13    14   ar
    22    14    15    1
    23     4     5   ar
    24     5     6   ar
    25     6    36    1
    26    36    37    1
    27    37    38   ar
    28    38    39    1
    29    38    40   ar
    30    40    41   ar
    31    41    42   ar
    32    42    43   ar
    33    43    44    1
    34    44    45    1
    35    44    46    1
    36    44    47    1
    37     6     7   ar
    38     7     8    2
    39    27    30    1
    40    30    31   ar
    41    31    32   ar
    42    32    33   ar
    43    33    34   ar
    44    34    35   ar
    45     7     1   ar
    46    35    30   ar
    47    14     9   ar
    48    43    37   ar
    49    26    28    1
    50    26    29    1
@<TRIPOS>MOLECULE
*****
 47 50 0 0 0
SMALL
GASTEIGER

@<TRIPOS>ATOM
      1 N          63.5559   86.8518   13.1099 N.ar    1  UNL1       -0.2470
      2 C          62.7247   86.6396   11.8794 C.ar    1  UNL1        0.2657
      3 O          62.4120   85.2475   11.4165 O.2     1  UNL1       -0.2668
      4 C          62.2062   87.8194   11.1120 C.ar    1  UNL1        0.0759
      5 C          62.5189   89.2115   11.5749 C.ar    1  UNL1        0.0848
      6 N          63.3501   89.4237   12.8053 N.ar    1  UNL1       -0.2755
      7 C          63.8686   88.2439   13.5728 C.ar    1  UNL1        0.3341
      8 O          64.6999   88.4561   14.8033 O.2     1  UNL1       -0.2462
      9 C          61.3750   87.6072    9.8814 C.ar    1  UNL1        0.0366
     10 C          61.3214   86.2539    9.2368 C.ar    1  UNL1        0.0026
     11 C          60.4902   86.0417    8.0063 C.ar    1  UNL1        0.0033
     12 C          59.7125   87.1828    7.4205 C.ar    1  UNL1        0.0392
     13 C          59.7661   88.5361    8.0652 C.ar    1  UNL1        0.1658
     14 C          60.5974   88.7483    9.2957 C.ar    1  UNL1        0.1739
     15 F          60.6510   90.1017    9.9403 F       1  UNL1       -0.2010
     16 O          58.9886   89.6773    7.4794 O.3     1  UNL1       -0.4732
     17 C          59.0452   89.9445    6.0045 C.3     1  UNL1        0.2055
     18 C          58.0947   90.9244    5.3828 C.3     1  UNL1        0.0473
     19 C          58.6099   91.9814    4.4515 C.3     1  UNL1        0.0042
     20 C          60.0825   92.0984    4.1911 C.3     1  UNL1        0.0060
     21 C          60.5723   92.7730    2.9440 C.3     1  UNL1        0.0417
     22 C          61.9886   92.5752    2.4912 C.2     1  UNL1        0.0503
     23 O          62.4227   93.0763    1.1457 O.co2   1  UNL1       -0.5492
     24 O          62.9708   91.8763    3.3839 O.co2   1  UNL1       -0.5492
     25 C          64.0744   85.6719   13.8774 C.3     1  UNL1        0.1334
     26 N          62.3364   85.2405   15.7597 N.3     1  UNL1       -0.3172
     27 C          63.1173   84.7521   14.5758 C.3     1  UNL1        0.0968
     28 H          62.5788   86.2130   15.9492 H       1  UNL1        0.1192
     29 H          62.5608   84.6691   16.5743 H       1  UNL1        0.1192
     30 C          62.9411   83.3438   14.0903 C.ar    1  UNL1       -0.0063
     31 C          61.7833   82.5226   14.5752 C.ar    1  UNL1       -0.0029
     32 C          61.6071   81.1144   14.0897 C.ar    1  UNL1       -0.0003
     33 C          62.5888   80.5273   13.1193 C.ar    1  UNL1       -0.0000
     34 C          63.7466   81.3484   12.6344 C.ar    1  UNL1       -0.0003
     35 C          63.9228   82.7566   13.1199 C.ar    1  UNL1       -0.0029
     36 C          63.6629   90.8158   13.2683 C.3     1  UNL1        0.1394
     37 C          64.6529   91.6525   12.5136 C.ar    1  UNL1        0.0319
     38 C          64.4493   91.9193   11.0515 C.ar    1  UNL1        0.1379
     39 F          63.2556   91.3493   10.3443 F       1  UNL1       -0.2044
     40 C          65.4393   92.7560   10.2968 C.ar    1  UNL1        0.0294
     41 C          66.6330   93.3260   11.0040 C.ar    1  UNL1        0.0022
     42 C          66.8367   93.0593   12.4660 C.ar    1  UNL1        0.0037
     43 C          65.8466   92.2226   13.2208 C.ar    1  UNL1        0.0714
     44 C          66.0502   91.9559   14.6827 C.3     1  UNL1        0.4184
     45 F          66.2539   91.6892   16.1447 F       1  UNL1       -0.1659
     46 F          65.6655   93.3717   14.9946 F       1  UNL1       -0.1659
     47 F          66.4350   90.5400   14.3709 F       1  UNL1       -0.1659
@<TRIPOS>UNITY_ATOM_ATTR
23 1
charge -1
@<TRIPOS>BOND
     1    27    26    1
     2    27    25    1
     3    25     1    1
     4     1     2   ar
     5     2     3    2
     6     2     4   ar
     7     4     9    1
     8     9    10   ar
     9    10    11   ar
    10    11    12   ar
    11    12    13   ar
    12    13    16    1
    13    16    17    1
    14    17    18    1
    15    18    19    1
    16    19    20    1
    17    20    21    1
    18    21    22    1
    19    22    23   ar
    20    22    24   ar
    21    13    14   ar
    22    14    15    1
    23     4     5   ar
    24     5     6   ar
    25     6    36    1
    26    36    37    1
    27    37    38   ar
    28    38    39    1
    29    38    40   ar
    30    40    41   ar
    31    41    42   ar
    32    42    43   ar
    33    43    44    1
    34    44    45    1
    35    44    46    1
    36    44    47    1
    37     6     7   ar
    38     7     8    2
    39    27    30    1
    40    30    31   ar
    41    31    32   ar
    42    32    33   ar
    43    33    34   ar
    44    34    35   ar
    45     7     1   ar
    46    35    30   ar
    47    14     9   ar
    48    43    37   ar
    49    26    28    1
    50    26    29    1
@<TRIPOS>MOLECULE
*****
 47 50 0 0 0
SMALL
GASTEIGER

@<TRIPOS>ATOM
      1 N          63.2521   86.5396   13.4363 N.ar    1  UNL1       -0.2470
      2 C          63.6891   87.6558   14.3380 C.ar    1  UNL1        0.2657
      3 O          64.0308   87.3724   15.7708 O.2     1  UNL1       -0.2668
      4 C          63.7843   89.0553   13.8069 C.ar    1  UNL1        0.0759
      5 C          63.4425   89.3387   12.3741 C.ar    1  UNL1        0.0848
      6 N          63.0056   88.2225   11.4724 N.ar    1  UNL1       -0.2755
      7 C          62.9104   86.8230   12.0035 C.ar    1  UNL1        0.3341
      8 O          62.4734   85.7067   11.1017 O.2     1  UNL1       -0.2462
      9 C          64.2212   90.1716   14.7087 C.ar    1  UNL1        0.0366
     10 C          63.5349   90.3845   16.0254 C.ar    1  UNL1        0.0026
     11 C          63.9718   91.5007   16.9271 C.ar    1  UNL1        0.0033
     12 C          65.0951   92.4041   16.5121 C.ar    1  UNL1        0.0392
     13 C          65.7814   92.1913   15.1955 C.ar    1  UNL1        0.1658
     14 C          65.3444   91.0750   14.2937 C.ar    1  UNL1        0.1739
     15 F          66.0308   90.8622   12.9770 F       1  UNL1       -0.2010
     16 O          66.9046   93.0947   14.7805 O.3     1  UNL1       -0.4732
     17 C          66.6419   94.2362   13.8436 C.3     1  UNL1        0.2055
     18 C          66.1999   93.9647   12.4360 C.3     1  UNL1        0.0473
     19 C          66.4357   94.9883   11.3653 C.3     1  UNL1        0.0042
     20 C          66.5252   94.5645    9.9292 C.3     1  UNL1        0.0060
     21 C          67.8605   94.2523    9.3212 C.3     1  UNL1        0.0417
     22 C          68.3989   92.8532    9.3714 C.2     1  UNL1        0.0503
     23 O          68.5668   92.1611   10.6915 O.co2   1  UNL1       -0.5492
     24 O          68.7693   92.1461    8.1014 O.co2   1  UNL1       -0.5492
     25 C          63.1569   85.1399   13.9673 C.3     1  UNL1        0.1334
     26 N          65.5742   84.2205   14.2154 N.3     1  UNL1       -0.3172
     27 C          64.2053   84.1288   13.6089 C.3     1  UNL1        0.0968
     28 H          65.6150   85.0238   14.8427 H       1  UNL1        0.1192
     29 H          66.2672   84.3316   13.4753 H       1  UNL1        0.1192
     30 C          63.8849   83.0259   12.6439 C.ar    1  UNL1       -0.0063
     31 C          64.3435   83.1195   11.2189 C.ar    1  UNL1       -0.0029
     32 C          64.0231   82.0167   10.2540 C.ar    1  UNL1       -0.0003
     33 C          63.2441   80.8203   10.7142 C.ar    1  UNL1       -0.0000
     34 C          62.7855   80.7267   12.1393 C.ar    1  UNL1       -0.0003
     35 C          63.1059   81.8296   13.1041 C.ar    1  UNL1       -0.0029
     36 C          62.6638   88.5059   10.0396 C.3     1  UNL1        0.1394
     37 C          61.4850   87.8320    9.4023 C.ar    1  UNL1        0.0319
     38 C          61.6935   86.6553    8.4957 C.ar    1  UNL1        0.1379
     39 F          63.0808   86.1526    8.2263 F       1  UNL1       -0.2044
     40 C          60.5146   85.9814    7.8584 C.ar    1  UNL1        0.0294
     41 C          59.1273   86.4842    8.1277 C.ar    1  UNL1        0.0022
     42 C          58.9188   87.6608    9.0343 C.ar    1  UNL1        0.0037
     43 C          60.0977   88.3348    9.6717 C.ar    1  UNL1        0.0714
     44 C          59.8891   89.5114   10.5783 C.3     1  UNL1        0.4184
     45 F          59.6806   90.6881   11.4849 F       1  UNL1       -0.1659
     46 F          59.7392   88.5839   11.7475 F       1  UNL1       -0.1659
     47 F          60.0391   90.4389    9.4090 F       1  UNL1       -0.1659
@<TRIPOS>UNITY_ATOM_ATTR
23 1
charge -1
@<TRIPOS>BOND
     1    27    26    1
     2    27    25    1
     3    25     1    1
     4     1     2   ar
     5     2     3    2
     6     2     4   ar
     7     4     9    1
     8     9    10   ar
     9    10    11   ar
    10    11    12   ar
    11    12    13   ar
    12    13    16    1
    13    16    17    1
    14    17    18    1
    15    18    19    1
    16    19    20    1
    17    20    21    1
    18    21    22    1
    19    22    23   ar
    20    22    24   ar
    21    13    14   ar
    22    14    15    1
    23     4     5   ar
    24     5     6   ar
    25     6    36    1
    26    36    37    1
    27    37    38   ar
    28    38    39    1
    29    38    40   ar
    30    40    41   ar
    31    41    42   ar
    32    42    43   ar
    33    43    44    1
    34    44    45    1
    35    44    46    1
    36    44    47    1
    37     6     7   ar
    38     7     8    2
    39    27    30    1
    40    30    31   ar
    41    31    32   ar
    42    32    33   ar
    43    33    34   ar
    44    34    35   ar
    45     7     1   ar
    46    35    30   ar
    47    14     9   ar
    48    43    37   ar
    49    26    28    1
    50    26    29    1
@<TRIPOS>MOLECULE
*****
 47 50 0 0 0
SMALL
GASTEIGER

@<TRIPOS>ATOM
      1 N          63.3630   89.4797   12.6289 N.ar    1  UNL1       -0.2470
      2 C          62.6619   89.0355   11.3795 C.ar    1  UNL1        0.2657
      3 O          62.1267   90.0541   10.4172 O.2     1  UNL1       -0.2668
      4 C          62.4959   87.5727   11.0923 C.ar    1  UNL1        0.0759
      5 C          63.0311   86.5540   12.0546 C.ar    1  UNL1        0.0848
      6 N          63.7322   86.9982   13.3040 N.ar    1  UNL1       -0.2755
      7 C          63.8981   88.4611   13.5912 C.ar    1  UNL1        0.3341
      8 O          64.5992   88.9054   14.8406 O.2     1  UNL1       -0.2462
      9 C          61.7948   87.1284    9.8429 C.ar    1  UNL1        0.0366
     10 C          62.3918   86.0468    8.9921 C.ar    1  UNL1        0.0026
     11 C          61.6907   85.6025    7.7427 C.ar    1  UNL1        0.0033
     12 C          60.3926   86.2398    7.3440 C.ar    1  UNL1        0.0392
     13 C          59.7956   87.3214    8.1948 C.ar    1  UNL1        0.1658
     14 C          60.4968   87.7656    9.4442 C.ar    1  UNL1        0.1739
     15 F          59.8998   88.8472   10.2950 F       1  UNL1       -0.2010
     16 O          58.4976   87.9586    7.7961 O.3     1  UNL1       -0.4732
     17 C          58.4728   88.9954    6.7124 C.3     1  UNL1        0.2055
     18 C          59.6144   89.9578    6.5689 C.3     1  UNL1        0.0473
     19 C          59.8722   90.6243    5.2501 C.3     1  UNL1        0.0042
     20 C          59.0872   91.8410    4.8585 C.3     1  UNL1        0.0060
     21 C          59.1160   92.3276    3.4399 C.3     1  UNL1        0.0417
     22 C          60.2779   93.1394    2.9489 C.2     1  UNL1        0.0503
     23 O          61.6336   92.5096    2.8243 O.co2   1  UNL1       -0.5492
     24 O          60.0841   94.5810    2.5825 O.co2   1  UNL1       -0.5492
     25 C          63.5289   90.9426   12.9161 C.3     1  UNL1        0.1334
     26 N          65.0640   92.0472   11.1346 N.3     1  UNL1       -0.3172
     27 C          64.8082   91.6375   12.5547 C.3     1  UNL1        0.0968
     28 H          64.2695   91.7774   10.5546 H       1  UNL1        0.1192
     29 H          65.9066   91.5844   10.7937 H       1  UNL1        0.1192
     30 C          65.8318   91.9226   13.6135 C.ar    1  UNL1       -0.0063
     31 C          65.3973   92.1905   15.0240 C.ar    1  UNL1       -0.0029
     32 C          66.4209   92.4756   16.0827 C.ar    1  UNL1       -0.0003
     33 C          67.8790   92.4928   15.7310 C.ar    1  UNL1       -0.0000
     34 C          68.3135   92.2249   14.3205 C.ar    1  UNL1       -0.0003
     35 C          67.2899   91.9398   13.2618 C.ar    1  UNL1       -0.0029
     36 C          64.2673   85.9796   14.2663 C.3     1  UNL1        0.1394
     37 C          63.6846   84.5978   14.2967 C.ar    1  UNL1        0.0319
     38 C          64.0949   83.5879   13.2662 C.ar    1  UNL1        0.1379
     39 F          65.0880   83.9599   12.2054 F       1  UNL1       -0.2044
     40 C          63.5122   82.2061   13.2967 C.ar    1  UNL1        0.0294
     41 C          62.5192   81.8341   14.3576 C.ar    1  UNL1        0.0022
     42 C          62.1089   82.8439   15.3880 C.ar    1  UNL1        0.0037
     43 C          62.6916   84.2258   15.3576 C.ar    1  UNL1        0.0714
     44 C          62.2813   85.2356   16.3881 C.3     1  UNL1        0.4184
     45 F          61.8709   86.2453   17.4186 F       1  UNL1       -0.1659
     46 F          60.8838   85.2238   15.8432 F       1  UNL1       -0.1659
     47 F          63.6787   85.2473   16.9330 F       1  UNL1       -0.1659
@<TRIPOS>UNITY_ATOM_ATTR
23 1
charge -1
@<TRIPOS>BOND
     1    27    26    1
     2    27    25    1
     3    25     1    1
     4     1     2   ar
     5     2     3    2
     6     2     4   ar
     7     4     9    1
     8     9    10   ar
     9    10    11   ar
    10    11    12   ar
    11    12    13   ar
    12    13    16    1
    13    16    17    1
    14    17    18    1
    15    18    19    1
    16    19    20    1
    17    20    21    1
    18    21    22    1
    19    22    23   ar
    20    22    24   ar
    21    13    14   ar
    22    14    15    1
    23     4     5   ar
    24     5     6   ar
    25     6    36    1
    26    36    37    1
    27    37    38   ar
    28    38    39    1
    29    38    40   ar
    30    40    41   ar
    31    41    42   ar
    32    42    43   ar
    33    43    44    1
    34    44    45    1
    35    44    46    1
    36    44    47    1
    37     6     7   ar
    38     7     8    2
    39    27    30    1
    40    30    31   ar
    41    31    32   ar
    42    32    33   ar
    43    33    34   ar
    44    34    35   ar
    45     7     1   ar
    46    35    30   ar
    47    14     9   ar
    48    43    37   ar
    49    26    28    1
    50    26    29    1
@<TRIPOS>MOLECULE
*****
 47 50 0 0 0
SMALL
GASTEIGER

@<TRIPOS>ATOM
      1 N          64.5768   91.3269   12.7534 N.ar    1  UNL1       -0.2470
      2 C          63.5900   90.8754   11.7179 C.ar    1  UNL1        0.2657
      3 O          63.1501   91.8200   10.6389 O.2     1  UNL1       -0.2668
      4 C          63.0431   89.4794   11.7614 C.ar    1  UNL1        0.0759
      5 C          63.4830   88.5349   12.8405 C.ar    1  UNL1        0.0848
      6 N          64.4698   88.9864   13.8760 N.ar    1  UNL1       -0.2755
      7 C          65.0167   90.3824   13.8325 C.ar    1  UNL1        0.3341
      8 O          66.0035   90.8340   14.8680 O.2     1  UNL1       -0.2462
      9 C          62.0562   89.0278   10.7259 C.ar    1  UNL1        0.0366
     10 C          61.0065   89.9758   10.2265 C.ar    1  UNL1        0.0026
     11 C          60.0197   89.5243    9.1910 C.ar    1  UNL1        0.0033
     12 C          60.0826   88.1248    8.6549 C.ar    1  UNL1        0.0392
     13 C          61.1323   87.1768    9.1542 C.ar    1  UNL1        0.1658
     14 C          62.1192   87.6284   10.1898 C.ar    1  UNL1        0.1739
     15 F          63.1689   86.6804   10.6891 F       1  UNL1       -0.2010
     16 O          61.1953   85.7773    8.6181 O.3     1  UNL1       -0.4732
     17 C          61.8077   84.6848    9.4435 C.3     1  UNL1        0.2055
     18 C          63.1743   84.1664    9.1064 C.3     1  UNL1        0.0473
     19 C          64.0202   83.5337   10.1713 C.3     1  UNL1        0.0042
     20 C          63.6014   82.2314   10.7866 C.3     1  UNL1        0.0060
     21 C          62.6683   82.2225   11.9611 C.3     1  UNL1        0.0417
     22 C          62.8970   81.2657   13.0934 C.2     1  UNL1        0.0503
     23 O          62.3280   79.8792   13.0301 O.co2   1  UNL1       -0.5492
     24 O          63.6945   81.6953   14.2889 O.co2   1  UNL1       -0.5492
     25 C          65.1237   92.7231   12.7099 C.3     1  UNL1        0.1334
     26 N          67.5412   92.9303   13.6388 N.3     1  UNL1       -0.3172
     27 C          66.5888   92.9477   12.4800 C.3     1  UNL1        0.0968
     28 H          67.0249   92.7535   14.5006 H       1  UNL1        0.1192
     29 H          68.0135   93.8319   13.7043 H       1  UNL1        0.1192
     30 C          67.1017   93.1899   11.0913 C.ar    1  UNL1       -0.0063
     31 C          66.7375   94.4518   10.3668 C.ar    1  UNL1       -0.0029
     32 C          67.2503   94.6939    8.9782 C.ar    1  UNL1       -0.0003
     33 C          68.1274   93.6742    8.3141 C.ar    1  UNL1       -0.0000
     34 C          68.4915   92.4123    9.0387 C.ar    1  UNL1       -0.0003
     35 C          67.9787   92.1702   10.4273 C.ar    1  UNL1       -0.0029
     36 C          64.9097   88.0418   14.9550 C.3     1  UNL1        0.1394
     37 C          63.8896   87.2654   15.7338 C.ar    1  UNL1        0.0319
     38 C          63.1354   87.9262   16.8494 C.ar    1  UNL1        0.1379
     39 F          63.4012   89.3636   17.1861 F       1  UNL1       -0.2044
     40 C          62.1153   87.1498   17.6281 C.ar    1  UNL1        0.0294
     41 C          61.8495   85.7124   17.2914 C.ar    1  UNL1        0.0022
     42 C          62.6037   85.0515   16.1759 C.ar    1  UNL1        0.0037
     43 C          63.6238   85.8280   15.3971 C.ar    1  UNL1        0.0714
     44 C          64.3780   85.1672   14.2816 C.3     1  UNL1        0.4184
     45 F          65.1322   84.5063   13.1661 F       1  UNL1       -0.1659
     46 F          63.1660   85.2662   13.4035 F       1  UNL1       -0.1659
     47 F          65.5900   85.0681   15.1597 F       1  UNL1       -0.1659
@<TRIPOS>UNITY_ATOM_ATTR
23 1
charge -1
@<TRIPOS>BOND
     1    27    26    1
     2    27    25    1
     3    25     1    1
     4     1     2   ar
     5     2     3    2
     6     2     4   ar
     7     4     9    1
     8     9    10   ar
     9    10    11   ar
    10    11    12   ar
    11    12    13   ar
    12    13    16    1
    13    16    17    1
    14    17    18    1
    15    18    19    1
    16    19    20    1
    17    20    21    1
    18    21    22    1
    19    22    23   ar
    20    22    24   ar
    21    13    14   ar
    22    14    15    1
    23     4     5   ar
    24     5     6   ar
    25     6    36    1
    26    36    37    1
    27    37    38   ar
    28    38    39    1
    29    38    40   ar
    30    40    41   ar
    31    41    42   ar
    32    42    43   ar
    33    43    44    1
    34    44    45    1
    35    44    46    1
    36    44    47    1
    37     6     7   ar
    38     7     8    2
    39    27    30    1
    40    30    31   ar
    41    31    32   ar
    42    32    33   ar
    43    33    34   ar
    44    34    35   ar
    45     7     1   ar
    46    35    30   ar
    47    14     9   ar
    48    43    37   ar
    49    26    28    1
    50    26    29    1
@<TRIPOS>MOLECULE
*****
 47 50 0 0 0
SMALL
GASTEIGER

@<TRIPOS>ATOM
      1 N          63.4088   88.3918   12.5493 N.ar    1  UNL1       -0.2470
      2 C          62.7060   88.1517   11.2461 C.ar    1  UNL1        0.2657
      3 O          62.3342   89.3110   10.3698 O.2     1  UNL1       -0.2668
      4 C          62.3750   86.7524   10.8191 C.ar    1  UNL1        0.0759
      5 C          62.7468   85.5931   11.6954 C.ar    1  UNL1        0.0848
      6 N          63.4495   85.8332   12.9986 N.ar    1  UNL1       -0.2755
      7 C          63.7805   87.2325   13.4256 C.ar    1  UNL1        0.3341
      8 O          64.4833   87.4726   14.7289 O.2     1  UNL1       -0.2462
      9 C          61.6722   86.5123    9.5158 C.ar    1  UNL1        0.0366
     10 C          62.1895   85.4738    8.5650 C.ar    1  UNL1        0.0026
     11 C          61.4867   85.2337    7.2618 C.ar    1  UNL1        0.0033
     12 C          60.2667   86.0320    6.9093 C.ar    1  UNL1        0.0392
     13 C          59.7494   87.0705    7.8601 C.ar    1  UNL1        0.1658
     14 C          60.4522   87.3106    9.1634 C.ar    1  UNL1        0.1739
     15 F          59.9350   88.3491   10.1142 F       1  UNL1       -0.2010
     16 O          58.5295   87.8689    7.5077 O.3     1  UNL1       -0.4732
     17 C          58.6431   89.3449    7.2660 C.3     1  UNL1        0.2055
     18 C          59.1691   89.8521    5.9560 C.3     1  UNL1        0.0473
     19 C          58.4240   90.9200    5.2115 C.3     1  UNL1        0.0042
     20 C          59.1386   92.1613    4.7660 C.3     1  UNL1        0.0060
     21 C          60.4372   92.0535    4.0229 C.3     1  UNL1        0.0417
     22 C          60.6646   92.8729    2.7873 C.2     1  UNL1        0.0503
     23 O          61.6580   92.4195    1.7589 O.co2   1  UNL1       -0.5492
     24 O          59.8985   94.1458    2.5800 O.co2   1  UNL1       -0.5492
     25 C          63.7398   89.7911   12.9763 C.3     1  UNL1        0.1334
     26 N          62.5007   89.7095   15.2584 N.3     1  UNL1       -0.3172
     27 C          63.6587   90.1723   14.4247 C.3     1  UNL1        0.0968
     28 H          61.8697   89.1511   14.6836 H       1  UNL1        0.1192
     29 H          62.0002   90.5193   15.6245 H       1  UNL1        0.1192
     30 C          64.7356   91.0163   15.0396 C.ar    1  UNL1       -0.0063
     31 C          64.4483   91.8147   16.2766 C.ar    1  UNL1       -0.0029
     32 C          65.5252   92.6586   16.8914 C.ar    1  UNL1       -0.0003
     33 C          66.8893   92.7042   16.2693 C.ar    1  UNL1       -0.0000
     34 C          67.1766   91.9058   15.0324 C.ar    1  UNL1       -0.0003
     35 C          66.0997   91.0619   14.4176 C.ar    1  UNL1       -0.0029
     36 C          63.8213   84.6739   13.8749 C.3     1  UNL1        0.1394
     37 C          63.1559   83.3437   13.6812 C.ar    1  UNL1        0.0319
     38 C          62.2195   82.8141   14.7267 C.ar    1  UNL1        0.1379
     39 F          61.9486   83.6149   15.9658 F       1  UNL1       -0.2044
     40 C          61.5541   81.4838   14.5330 C.ar    1  UNL1        0.0294
     41 C          61.8250   80.6831   13.2939 C.ar    1  UNL1        0.0022
     42 C          62.7613   81.2125   12.2485 C.ar    1  UNL1        0.0037
     43 C          63.4268   82.5429   12.4421 C.ar    1  UNL1        0.0714
     44 C          64.3631   83.0724   11.3967 C.3     1  UNL1        0.4184
     45 F          65.2994   83.6018   10.3513 F       1  UNL1       -0.1659
     46 F          65.4103   83.2947   12.4473 F       1  UNL1       -0.1659
     47 F          63.3158   82.8500   10.3461 F       1  UNL1       -0.1659
@<TRIPOS>UNITY_ATOM_ATTR
23 1
charge -1
@<TRIPOS>BOND
     1    27    26    1
     2    27    25    1
     3    25     1    1
     4     1     2   ar
     5     2     3    2
     6     2     4   ar
     7     4     9    1
     8     9    10   ar
     9    10    11   ar
    10    11    12   ar
    11    12    13   ar
    12    13    16    1
    13    16    17    1
    14    17    18    1
    15    18    19    1
    16    19    20    1
    17    20    21    1
    18    21    22    1
    19    22    23   ar
    20    22    24   ar
    21    13    14   ar
    22    14    15    1
    23     4     5   ar
    24     5     6   ar
    25     6    36    1
    26    36    37    1
    27    37    38   ar
    28    38    39    1
    29    38    40   ar
    30    40    41   ar
    31    41    42   ar
    32    42    43   ar
    33    43    44    1
    34    44    45    1
    35    44    46    1
    36    44    47    1
    37     6     7   ar
    38     7     8    2
    39    27    30    1
    40    30    31   ar
    41    31    32   ar
    42    32    33   ar
    43    33    34   ar
    44    34    35   ar
    45     7     1   ar
    46    35    30   ar
    47    14     9   ar
    48    43    37   ar
    49    26    28    1
    50    26    29    1
@<TRIPOS>MOLECULE
*****
 47 50 0 0 0
SMALL
GASTEIGER

@<TRIPOS>ATOM
      1 N          63.3910   86.7572   12.8940 N.ar    1  UNL1       -0.2470
      2 C          62.5411   86.5649   11.6731 C.ar    1  UNL1        0.2657
      3 O          62.2853   85.1836   11.1472 O.2     1  UNL1       -0.2668
      4 C          61.9469   87.7540   10.9780 C.ar    1  UNL1        0.0759
      5 C          62.2026   89.1353   11.5039 C.ar    1  UNL1        0.0848
      6 N          63.0525   89.3276   12.7248 N.ar    1  UNL1       -0.2755
      7 C          63.6467   88.1386   13.4198 C.ar    1  UNL1        0.3341
      8 O          64.4967   88.3308   14.6408 O.2     1  UNL1       -0.2462
      9 C          61.0969   87.5617    9.7571 C.ar    1  UNL1        0.0366
     10 C          60.9060   86.1884    9.1848 C.ar    1  UNL1        0.0026
     11 C          60.0561   85.9961    7.9639 C.ar    1  UNL1        0.0033
     12 C          59.3971   87.1772    7.3152 C.ar    1  UNL1        0.0392
     13 C          59.5880   88.5505    7.8874 C.ar    1  UNL1        0.1658
     14 C          60.4380   88.7428    9.1084 C.ar    1  UNL1        0.1739
     15 F          60.6289   90.1161    9.6806 F       1  UNL1       -0.2010
     16 O          58.9290   89.7316    7.2388 O.3     1  UNL1       -0.4732
     17 C          59.1343   89.9955    5.7766 C.3     1  UNL1        0.2055
     18 C          58.6657   91.2870    5.1745 C.3     1  UNL1        0.0473
     19 C          59.6586   92.2412    4.5799 C.3     1  UNL1        0.0042
     20 C          59.5813   92.5933    3.1239 C.3     1  UNL1        0.0060
     21 C          60.7031   93.3479    2.4741 C.3     1  UNL1        0.0417
     22 C          62.0489   92.7040    2.3184 C.2     1  UNL1        0.0503
     23 O          62.8724   92.9740    1.0940 O.co2   1  UNL1       -0.5492
     24 O          62.5713   91.7901    3.3870 O.co2   1  UNL1       -0.5492
     25 C          63.9852   85.5682   13.5891 C.3     1  UNL1        0.1334
     26 N          62.4263   85.1084   15.6160 N.3     1  UNL1       -0.3172
     27 C          63.1035   84.6345   14.3642 C.3     1  UNL1        0.0968
     28 H          62.6749   86.0823   15.7892 H       1  UNL1        0.1192
     29 H          62.7283   84.5351   16.4038 H       1  UNL1        0.1192
     30 C          62.8989   83.2270   13.8876 C.ar    1  UNL1       -0.0063
     31 C          61.8034   82.3879   14.4755 C.ar    1  UNL1       -0.0029
     32 C          61.5989   80.9804   13.9989 C.ar    1  UNL1       -0.0003
     33 C          62.4899   80.4121   12.9344 C.ar    1  UNL1       -0.0000
     34 C          63.5853   81.2513   12.3464 C.ar    1  UNL1       -0.0003
     35 C          63.7899   82.6587   12.8231 C.ar    1  UNL1       -0.0029
     36 C          63.3083   90.7089   13.2507 C.3     1  UNL1        0.1394
     37 C          64.6751   91.3153   13.1324 C.ar    1  UNL1        0.0319
     38 C          65.5946   91.3293   14.3175 C.ar    1  UNL1        0.1379
     39 F          65.1472   90.7368   15.6208 F       1  UNL1       -0.2044
     40 C          66.9614   91.9357   14.1992 C.ar    1  UNL1        0.0294
     41 C          67.4088   92.5282   12.8958 C.ar    1  UNL1        0.0022
     42 C          66.4894   92.5143   11.7107 C.ar    1  UNL1        0.0037
     43 C          65.1225   91.9079   11.8290 C.ar    1  UNL1        0.0714
     44 C          64.2030   91.8940   10.6439 C.3     1  UNL1        0.4184
     45 F          63.2836   91.8801    9.4589 F       1  UNL1       -0.1659
     46 F          64.1599   93.3932   10.6598 F       1  UNL1       -0.1659
     47 F          64.2462   90.3947   10.6281 F       1  UNL1       -0.1659
@<TRIPOS>UNITY_ATOM_ATTR
23 1
charge -1
@<TRIPOS>BOND
     1    27    26    1
     2    27    25    1
     3    25     1    1
     4     1     2   ar
     5     2     3    2
     6     2     4   ar
     7     4     9    1
     8     9    10   ar
     9    10    11   ar
    10    11    12   ar
    11    12    13   ar
    12    13    16    1
    13    16    17    1
    14    17    18    1
    15    18    19    1
    16    19    20    1
    17    20    21    1
    18    21    22    1
    19    22    23   ar
    20    22    24   ar
    21    13    14   ar
    22    14    15    1
    23     4     5   ar
    24     5     6   ar
    25     6    36    1
    26    36    37    1
    27    37    38   ar
    28    38    39    1
    29    38    40   ar
    30    40    41   ar
    31    41    42   ar
    32    42    43   ar
    33    43    44    1
    34    44    45    1
    35    44    46    1
    36    44    47    1
    37     6     7   ar
    38     7     8    2
    39    27    30    1
    40    30    31   ar
    41    31    32   ar
    42    32    33   ar
    43    33    34   ar
    44    34    35   ar
    45     7     1   ar
    46    35    30   ar
    47    14     9   ar
    48    43    37   ar
    49    26    28    1
    50    26    29    1
@<TRIPOS>MOLECULE
*****
 47 50 0 0 0
SMALL
GASTEIGER

@<TRIPOS>ATOM
      1 N          62.7911   88.9258   13.0939 N.ar    1  UNL1       -0.2470
      2 C          61.9107   88.9325   11.8795 C.ar    1  UNL1        0.2657
      3 O          61.1552   90.1739   11.5077 O.2     1  UNL1       -0.2668
      4 C          61.7858   87.6979   11.0369 C.ar    1  UNL1        0.0759
      5 C          62.5412   86.4565   11.4087 C.ar    1  UNL1        0.0848
      6 N          63.4216   86.4498   12.6231 N.ar    1  UNL1       -0.2755
      7 C          63.5465   87.6844   13.4657 C.ar    1  UNL1        0.3341
      8 O          64.4269   87.6777   14.6802 O.2     1  UNL1       -0.2462
      9 C          60.9053   87.7046    9.8224 C.ar    1  UNL1        0.0366
     10 C          60.1570   86.4647    9.4317 C.ar    1  UNL1        0.0026
     11 C          59.2767   86.4713    8.2173 C.ar    1  UNL1        0.0033
     12 C          59.1445   87.7180    7.3935 C.ar    1  UNL1        0.0392
     13 C          59.8928   88.9579    7.7842 C.ar    1  UNL1        0.1658
     14 C          60.7732   88.9512    8.9987 C.ar    1  UNL1        0.1739
     15 F          61.5215   90.1911    9.3894 F       1  UNL1       -0.2010
     16 O          59.7607   90.2045    6.9605 O.3     1  UNL1       -0.4732
     17 C          58.9943   90.1739    5.6715 C.3     1  UNL1        0.2055
     18 C          58.2345   91.3866    5.2217 C.3     1  UNL1        0.0473
     19 C          58.6990   92.1611    4.0241 C.3     1  UNL1        0.0042
     20 C          60.1442   92.5399    3.8903 C.3     1  UNL1        0.0060
     21 C          60.6989   92.9198    2.5493 C.3     1  UNL1        0.0417
     22 C          62.1474   92.6810    2.2419 C.2     1  UNL1        0.0503
     23 O          62.7218   93.1382    0.9338 O.co2   1  UNL1       -0.5492
     24 O          63.0217   91.9849    3.2425 O.co2   1  UNL1       -0.5492
     25 C          62.9160   90.1605   13.9366 C.3     1  UNL1        0.1334
     26 N          64.9342   90.8219   15.4330 N.3     1  UNL1       -0.3172
     27 C          64.2503   90.8264   14.0980 C.3     1  UNL1        0.0968
     28 H          64.3546   90.3261   16.1103 H       1  UNL1        0.1192
     29 H          65.0762   91.7824   15.7456 H       1  UNL1        0.1192
     30 C          64.9008   91.4970   12.9244 C.ar    1  UNL1       -0.0063
     31 C          66.2960   92.0340   13.0459 C.ar    1  UNL1       -0.0029
     32 C          66.9464   92.7045   11.8723 C.ar    1  UNL1       -0.0003
     33 C          66.2015   92.8381   10.5772 C.ar    1  UNL1       -0.0000
     34 C          64.8062   92.3011   10.4557 C.ar    1  UNL1       -0.0003
     35 C          64.1559   91.6305   11.6293 C.ar    1  UNL1       -0.0029
     36 C          64.1770   85.2084   12.9949 C.3     1  UNL1        0.1394
     37 C          63.4687   83.8873   13.0492 C.ar    1  UNL1        0.0319
     38 C          63.4449   82.9988   11.8407 C.ar    1  UNL1        0.1379
     39 F          64.1295   83.4315   10.5782 F       1  UNL1       -0.2044
     40 C          62.7366   81.6778   11.8950 C.ar    1  UNL1        0.0294
     41 C          62.0520   81.2451   13.1575 C.ar    1  UNL1        0.0022
     42 C          62.0757   82.1334   14.3659 C.ar    1  UNL1        0.0037
     43 C          62.7841   83.4546   14.3117 C.ar    1  UNL1        0.0714
     44 C          62.8078   84.3430   15.5201 C.3     1  UNL1        0.4184
     45 F          62.8316   85.2313   16.7284 F       1  UNL1       -0.1659
     46 F          61.3729   84.7078   15.2800 F       1  UNL1       -0.1659
     47 F          64.2428   83.9781   15.7601 F       1  UNL1       -0.1659
@<TRIPOS>UNITY_ATOM_ATTR
23 1
charge -1
@<TRIPOS>BOND
     1    27    26    1
     2    27    25    1
     3    25     1    1
     4     1     2   ar
     5     2     3    2
     6     2     4   ar
     7     4     9    1
     8     9    10   ar
     9    10    11   ar
    10    11    12   ar
    11    12    13   ar
    12    13    16    1
    13    16    17    1
    14    17    18    1
    15    18    19    1
    16    19    20    1
    17    20    21    1
    18    21    22    1
    19    22    23   ar
    20    22    24   ar
    21    13    14   ar
    22    14    15    1
    23     4     5   ar
    24     5     6   ar
    25     6    36    1
    26    36    37    1
    27    37    38   ar
    28    38    39    1
    29    38    40   ar
    30    40    41   ar
    31    41    42   ar
    32    42    43   ar
    33    43    44    1
    34    44    45    1
    35    44    46    1
    36    44    47    1
    37     6     7   ar
    38     7     8    2
    39    27    30    1
    40    30    31   ar
    41    31    32   ar
    42    32    33   ar
    43    33    34   ar
    44    34    35   ar
    45     7     1   ar
    46    35    30   ar
    47    14     9   ar
    48    43    37   ar
    49    26    28    1
    50    26    29    1
