@<TRIPOS>MOLECULE
*****
 29 32 0 0 0
SMALL
GASTEIGER

@<TRIPOS>ATOM
      1 C          64.1714   91.1150   12.3751 C.ar    1  UNL1        0.0785
      2 C          64.6824   90.4499   13.6187 C.ar    1  UNL1        0.0183
      3 C          64.4018   88.9964   13.8612 C.ar    1  UNL1        0.0168
      4 C          63.6104   88.2081   12.8601 C.ar    1  UNL1        0.0636
      5 C          63.0995   88.8733   11.6166 C.ar    1  UNL1        0.0462
      6 C          63.3800   90.3267   11.3741 C.ar    1  UNL1        0.1547
      7 F          62.8690   90.9919   10.1304 F       1  UNL1       -0.2028
      8 N          63.3299   86.7547   13.1026 N.am    1  UNL1       -0.2010
      9 C          63.4053   86.0508   14.4251 C.2     1  UNL1        0.2589
     10 O          63.7744   86.6769   15.7373 O.2     1  UNL1       -0.2691
     11 C          63.0467   84.6110   14.2051 C.ar    1  UNL1        0.0588
     12 C          62.9523   83.4454   15.1443 C.ar    1  UNL1        0.0070
     13 C          62.5609   82.0937   14.6251 C.ar    1  UNL1        0.0298
     14 C          62.2639   81.9076   13.1666 C.ar    1  UNL1        0.1403
     15 F          61.8725   80.5558   12.6474 F       1  UNL1       -0.2042
     16 C          62.3584   83.0733   12.2273 C.ar    1  UNL1        0.0343
     17 C          62.7498   84.4250   12.7466 C.ar    1  UNL1        0.0609
     18 C          62.9248   85.7499   12.0653 C.2     1  UNL1        0.2590
     19 O          62.7290   86.0220   10.6032 O.2     1  UNL1       -0.2691
     20 C          65.8016   92.9999   11.6404 C.2     1  UNL1        0.2840
     21 O          66.8708   91.9779   11.3906 O.2     1  UNL1       -0.2665
     22 N          64.4519   92.5685   12.1326 N.am    1  UNL1       -0.2761
     23 H          63.7502   93.2393   12.2965 H       1  UNL1        0.1553
     24 C          67.1172   94.2751    8.9399 C.3     1  UNL1        0.0345
     25 C          66.6868   95.0395   10.1565 C.ar    1  UNL1        0.0204
     26 C          66.7856   96.5242   10.3457 C.ar    1  UNL1        0.0396
     27 C          66.2419   96.8558   11.7038 C.ar    1  UNL1        0.1795
     28 O          65.8071   95.5759   12.3541 O.2     1  UNL1       -0.4461
     29 C          66.0821   94.4534   11.3979 C.ar    1  UNL1        0.1948
@<TRIPOS>BOND
     1    24    25    1
     2    25    26   ar
     3    26    27   ar
     4    27    28   ar
     5    28    29   ar
     6    29    20    1
     7    20    21    2
     8    20    22   am
     9    22     1    1
    10     1     2   ar
    11     2     3   ar
    12     3     4   ar
    13     4     8    1
    14     8     9   am
    15     9    10    2
    16     9    11    1
    17    11    12   ar
    18    12    13   ar
    19    13    14   ar
    20    14    15    1
    21    14    16   ar
    22    16    17   ar
    23    17    18    1
    24    18    19    2
    25     4     5   ar
    26     5     6   ar
    27     6     7    1
    28    29    25   ar
    29     6     1   ar
    30    18     8   am
    31    17    11   ar
    32    22    23    1
@<TRIPOS>MOLECULE
*****
 29 32 0 0 0
SMALL
GASTEIGER

@<TRIPOS>ATOM
      1 C          71.5387   78.1407   12.6077 C.ar    1  UNL1        0.0785
      2 C          71.1196   76.8632   11.9426 C.ar    1  UNL1        0.0183
      3 C          71.1472   75.5744   12.7095 C.ar    1  UNL1        0.0168
      4 C          71.5939   75.5630   14.1413 C.ar    1  UNL1        0.0636
      5 C          72.0130   76.8405   14.8064 C.ar    1  UNL1        0.0462
      6 C          71.9854   78.1294   14.0395 C.ar    1  UNL1        0.1547
      7 F          72.4045   79.4069   14.7046 F       1  UNL1       -0.2028
      8 N          71.6215   74.2741   14.9082 N.am    1  UNL1       -0.2010
      9 C          70.7204   73.9081   16.0500 C.2     1  UNL1        0.2589
     10 O          69.6333   74.7666   16.6256 O.2     1  UNL1       -0.2691
     11 C          71.0970   72.5327   16.5154 C.ar    1  UNL1        0.0588
     12 C          70.5539   71.6585   17.6066 C.ar    1  UNL1        0.0070
     13 C          71.1448   70.3004   17.8435 C.ar    1  UNL1        0.0298
     14 C          72.2788   69.8164   16.9892 C.ar    1  UNL1        0.1403
     15 F          72.8697   68.4581   17.2262 F       1  UNL1       -0.2042
     16 C          72.8219   70.6905   15.8980 C.ar    1  UNL1        0.0343
     17 C          72.2310   72.0487   15.6611 C.ar    1  UNL1        0.0609
     18 C          72.5551   73.1250   14.6678 C.2     1  UNL1        0.2590
     19 O          73.6251   73.0629   13.6183 O.2     1  UNL1       -0.2691
     20 C          72.3696   79.5958   10.6221 C.2     1  UNL1        0.2840
     21 O          73.2557   78.4730   10.1701 O.2     1  UNL1       -0.2665
     22 N          71.5111   79.4296   11.8408 N.am    1  UNL1       -0.2761
     23 H          70.9295   80.1665   12.1375 H       1  UNL1        0.1553
     24 C          72.0107   79.8991    7.3927 C.3     1  UNL1        0.0345
     25 C          72.1770   81.0240    8.3708 C.ar    1  UNL1        0.0204
     26 C          72.2076   82.4860    8.0364 C.ar    1  UNL1        0.0396
     27 C          72.3914   83.2501    9.3140 C.ar    1  UNL1        0.1795
     28 O          72.4745   82.2604   10.4381 O.2     1  UNL1       -0.4461
     29 C          72.3420   80.8846    9.8553 C.ar    1  UNL1        0.1948
@<TRIPOS>BOND
     1    24    25    1
     2    25    26   ar
     3    26    27   ar
     4    27    28   ar
     5    28    29   ar
     6    29    20    1
     7    20    21    2
     8    20    22   am
     9    22     1    1
    10     1     2   ar
    11     2     3   ar
    12     3     4   ar
    13     4     8    1
    14     8     9   am
    15     9    10    2
    16     9    11    1
    17    11    12   ar
    18    12    13   ar
    19    13    14   ar
    20    14    15    1
    21    14    16   ar
    22    16    17   ar
    23    17    18    1
    24    18    19    2
    25     4     5   ar
    26     5     6   ar
    27     6     7    1
    28    29    25   ar
    29     6     1   ar
    30    18     8   am
    31    17    11   ar
    32    22    23    1
@<TRIPOS>MOLECULE
*****
 29 32 0 0 0
SMALL
GASTEIGER

@<TRIPOS>ATOM
      1 C          62.7770   86.6105   12.9141 C.ar    1  UNL1        0.0785
      2 C          62.4127   87.3973   11.6901 C.ar    1  UNL1        0.0183
      3 C          62.9633   88.7789   11.4952 C.ar    1  UNL1        0.0168
      4 C          63.8782   89.3737   12.5244 C.ar    1  UNL1        0.0636
      5 C          64.2424   88.5869   13.7484 C.ar    1  UNL1        0.0462
      6 C          63.6918   87.2053   13.9433 C.ar    1  UNL1        0.1547
      7 F          64.0561   86.4185   15.1673 F       1  UNL1       -0.2028
      8 N          64.4288   90.7553   12.3295 N.am    1  UNL1       -0.2010
      9 C          65.2332   91.5329   13.3286 C.2     1  UNL1        0.2589
     10 O          65.6283   91.0654   14.6981 O.2     1  UNL1       -0.2691
     11 C          65.5733   92.8601   12.7180 C.ar    1  UNL1        0.0588
     12 C          66.3472   94.0352   13.2375 C.ar    1  UNL1        0.0070
     13 C          66.5269   95.2530   12.3805 C.ar    1  UNL1        0.0298
     14 C          65.9326   95.2957   11.0039 C.ar    1  UNL1        0.1403
     15 F          66.1123   96.5137   10.1468 F       1  UNL1       -0.2042
     16 C          65.1586   94.1206   10.4843 C.ar    1  UNL1        0.0343
     17 C          64.9790   92.9028   11.3414 C.ar    1  UNL1        0.0609
     18 C          64.2717   91.6020   11.1013 C.2     1  UNL1        0.2590
     19 O          63.5363   91.2157    9.8523 O.2     1  UNL1       -0.2691
     20 C          63.1483   84.0457   13.0984 C.2     1  UNL1        0.2840
     21 O          64.6209   84.2441   12.8931 O.2     1  UNL1       -0.2665
     22 N          62.2264   85.2289   13.1090 N.am    1  UNL1       -0.2761
     23 H          61.2599   85.0986   13.2438 H       1  UNL1        0.1553
     24 C          63.4037   81.5646   10.9941 C.3     1  UNL1        0.0345
     25 C          62.7151   81.5236   12.3260 C.ar    1  UNL1        0.0204
     26 C          62.0229   80.3350   12.9246 C.ar    1  UNL1        0.0396
     27 C          61.4778   80.7409   14.2618 C.ar    1  UNL1        0.1795
     28 O          61.8330   82.1803   14.4896 O.2     1  UNL1       -0.4461
     29 C          62.5977   82.6641   13.2933 C.ar    1  UNL1        0.1948
@<TRIPOS>BOND
     1    24    25    1
     2    25    26   ar
     3    26    27   ar
     4    27    28   ar
     5    28    29   ar
     6    29    20    1
     7    20    21    2
     8    20    22   am
     9    22     1    1
    10     1     2   ar
    11     2     3   ar
    12     3     4   ar
    13     4     8    1
    14     8     9   am
    15     9    10    2
    16     9    11    1
    17    11    12   ar
    18    12    13   ar
    19    13    14   ar
    20    14    15    1
    21    14    16   ar
    22    16    17   ar
    23    17    18    1
    24    18    19    2
    25     4     5   ar
    26     5     6   ar
    27     6     7    1
    28    29    25   ar
    29     6     1   ar
    30    18     8   am
    31    17    11   ar
    32    22    23    1
@<TRIPOS>MOLECULE
*****
 29 32 0 0 0
SMALL
GASTEIGER

@<TRIPOS>ATOM
      1 C          63.9375   90.7551   12.4392 C.ar    1  UNL1        0.0785
      2 C          64.4679   89.9886   13.6144 C.ar    1  UNL1        0.0183
      3 C          64.2058   88.5162   13.7296 C.ar    1  UNL1        0.0168
      4 C          63.4134   87.8102   12.6697 C.ar    1  UNL1        0.0636
      5 C          62.8830   88.5767   11.4945 C.ar    1  UNL1        0.0462
      6 C          63.1451   90.0491   11.3792 C.ar    1  UNL1        0.1547
      7 F          62.6146   90.8156   10.2039 F       1  UNL1       -0.2028
      8 N          63.1513   86.3378   12.7849 N.am    1  UNL1       -0.2010
      9 C          62.8459   85.4052   11.6505 C.2     1  UNL1        0.2589
     10 O          62.7490   85.7812   10.2016 O.2     1  UNL1       -0.2691
     11 C          62.6544   84.0304   12.2192 C.ar    1  UNL1        0.0588
     12 C          62.3339   82.7138   11.5760 C.ar    1  UNL1        0.0070
     13 C          62.2005   81.4802   12.4188 C.ar    1  UNL1        0.0298
     14 C          62.3875   81.5632   13.9048 C.ar    1  UNL1        0.1403
     15 F          62.2540   80.3295   14.7476 F       1  UNL1       -0.2042
     16 C          62.7080   82.8798   14.5480 C.ar    1  UNL1        0.0343
     17 C          62.8414   84.1134   13.7052 C.ar    1  UNL1        0.0609
     18 C          63.1485   85.5395   14.0548 C.2     1  UNL1        0.2590
     19 O          63.4074   86.0734   15.4324 O.2     1  UNL1       -0.2691
     20 C          65.2446   92.7311   11.3730 C.2     1  UNL1        0.2840
     21 O          66.0275   91.7623   10.5372 O.2     1  UNL1       -0.2665
     22 N          64.1996   92.2275   12.3240 N.am    1  UNL1       -0.2761
     23 H          63.6858   92.8633   12.8725 H       1  UNL1        0.1553
     24 C          66.7025   94.6012   13.6151 C.3     1  UNL1        0.0345
     25 C          66.1768   95.0631   12.2884 C.ar    1  UNL1        0.0204
     26 C          66.2290   96.4657   11.7592 C.ar    1  UNL1        0.0396
     27 C          65.5911   96.4730   10.4016 C.ar    1  UNL1        0.1795
     28 O          65.1447   95.0749   10.0917 O.2     1  UNL1       -0.4461
     29 C          65.5067   94.2035   11.2577 C.ar    1  UNL1        0.1948
@<TRIPOS>BOND
     1    24    25    1
     2    25    26   ar
     3    26    27   ar
     4    27    28   ar
     5    28    29   ar
     6    29    20    1
     7    20    21    2
     8    20    22   am
     9    22     1    1
    10     1     2   ar
    11     2     3   ar
    12     3     4   ar
    13     4     8    1
    14     8     9   am
    15     9    10    2
    16     9    11    1
    17    11    12   ar
    18    12    13   ar
    19    13    14   ar
    20    14    15    1
    21    14    16   ar
    22    16    17   ar
    23    17    18    1
    24    18    19    2
    25     4     5   ar
    26     5     6   ar
    27     6     7    1
    28    29    25   ar
    29     6     1   ar
    30    18     8   am
    31    17    11   ar
    32    22    23    1
@<TRIPOS>MOLECULE
*****
 29 32 0 0 0
SMALL
GASTEIGER

@<TRIPOS>ATOM
      1 C          58.8581   95.0945   -0.8604 C.ar    1  UNL1        0.0785
      2 C          58.6438   96.3681   -1.6232 C.ar    1  UNL1        0.0183
      3 C          57.3515   96.5994   -2.3489 C.ar    1  UNL1        0.0168
      4 C          56.2735   95.5570   -2.3118 C.ar    1  UNL1        0.0636
      5 C          56.4878   94.2834   -1.5490 C.ar    1  UNL1        0.0462
      6 C          57.7801   94.0521   -0.8233 C.ar    1  UNL1        0.1547
      7 F          57.9944   92.7783   -0.0606 F       1  UNL1       -0.2028
      8 N          54.9813   95.7883   -3.0374 N.am    1  UNL1       -0.2010
      9 C          54.8074   95.8671   -4.5252 C.2     1  UNL1        0.2589
     10 O          55.8953   95.7285   -5.5486 O.2     1  UNL1       -0.2691
     11 C          53.3547   96.1089   -4.8100 C.ar    1  UNL1        0.0588
     12 C          52.5976   96.2739   -6.0943 C.ar    1  UNL1        0.0070
     13 C          51.1165   96.5095   -6.0668 C.ar    1  UNL1        0.0298
     14 C          50.3925   96.5801   -4.7550 C.ar    1  UNL1        0.1403
     15 F          48.9113   96.8157   -4.7276 F       1  UNL1       -0.2042
     16 C          51.1496   96.4151   -3.4707 C.ar    1  UNL1        0.0343
     17 C          52.6307   96.1795   -3.4982 C.ar    1  UNL1        0.0609
     18 C          53.6360   95.9814   -2.4027 C.2     1  UNL1        0.2590
     19 O          53.3467   95.9771   -0.9308 O.2     1  UNL1       -0.2691
     20 C          61.1472   93.8802   -0.6731 C.2     1  UNL1        0.2840
     21 O          60.8519   93.1284   -1.9371 O.2     1  UNL1       -0.2665
     22 N          60.1503   94.8632   -0.1348 N.am    1  UNL1       -0.2761
     23 H          60.3441   95.3566    0.6948 H       1  UNL1        0.1553
     24 C          61.4628   92.7123    2.3578 C.3     1  UNL1        0.0345
     25 C          62.5845   93.1121    1.4457 C.ar    1  UNL1        0.0204
     26 C          64.0483   93.0453    1.7666 C.ar    1  UNL1        0.0396
     27 C          64.8079   93.5407    0.5718 C.ar    1  UNL1        0.1795
     28 O          63.8136   93.9138   -0.4875 O.2     1  UNL1       -0.4461
     29 C          62.4395   93.6489    0.0525 C.ar    1  UNL1        0.1948
@<TRIPOS>BOND
     1    24    25    1
     2    25    26   ar
     3    26    27   ar
     4    27    28   ar
     5    28    29   ar
     6    29    20    1
     7    20    21    2
     8    20    22   am
     9    22     1    1
    10     1     2   ar
    11     2     3   ar
    12     3     4   ar
    13     4     8    1
    14     8     9   am
    15     9    10    2
    16     9    11    1
    17    11    12   ar
    18    12    13   ar
    19    13    14   ar
    20    14    15    1
    21    14    16   ar
    22    16    17   ar
    23    17    18    1
    24    18    19    2
    25     4     5   ar
    26     5     6   ar
    27     6     7    1
    28    29    25   ar
    29     6     1   ar
    30    18     8   am
    31    17    11   ar
    32    22    23    1
@<TRIPOS>MOLECULE
*****
 29 32 0 0 0
SMALL
GASTEIGER

@<TRIPOS>ATOM
      1 C          62.7708   86.6256   12.8637 C.ar    1  UNL1        0.0785
      2 C          62.3383   87.3801   11.6415 C.ar    1  UNL1        0.0183
      3 C          62.8574   88.7652   11.3924 C.ar    1  UNL1        0.0168
      4 C          63.8089   89.3958   12.3654 C.ar    1  UNL1        0.0636
      5 C          64.2414   88.6414   13.5876 C.ar    1  UNL1        0.0462
      6 C          63.7223   87.2563   13.8367 C.ar    1  UNL1        0.1547
      7 F          64.1548   86.5018   15.0590 F       1  UNL1       -0.2028
      8 N          64.3280   90.7809   12.1163 N.am    1  UNL1       -0.2010
      9 C          64.1305   91.5848   10.8654 C.2     1  UNL1        0.2589
     10 O          63.3792   91.1447    9.6440 O.2     1  UNL1       -0.2691
     11 C          64.8162   92.9060   11.0503 C.ar    1  UNL1        0.0588
     12 C          64.9551   94.0991   10.1519 C.ar    1  UNL1        0.0070
     13 C          65.7153   95.3050   10.6187 C.ar    1  UNL1        0.0298
     14 C          66.3366   95.3177   11.9839 C.ar    1  UNL1        0.1403
     15 F          67.0969   96.5236   12.4508 F       1  UNL1       -0.2042
     16 C          66.1977   94.1246   12.8823 C.ar    1  UNL1        0.0343
     17 C          65.4375   92.9187   12.4155 C.ar    1  UNL1        0.0609
     18 C          65.1358   91.6053   13.0743 C.2     1  UNL1        0.2590
     19 O          65.5664   91.1894   14.4496 O.2     1  UNL1       -0.2691
     20 C          63.1802   84.0655   13.0303 C.2     1  UNL1        0.2840
     21 O          64.6280   84.2754   12.6986 O.2     1  UNL1       -0.2665
     22 N          62.2517   85.2406   13.1128 N.am    1  UNL1       -0.2761
     23 H          61.3015   85.1027   13.3305 H       1  UNL1        0.1553
     24 C          63.3748   81.5442   10.9676 C.3     1  UNL1        0.0345
     25 C          62.7506   81.5215   12.3313 C.ar    1  UNL1        0.0204
     26 C          62.1062   80.3359   12.9864 C.ar    1  UNL1        0.0396
     27 C          61.6185   80.7620   14.3393 C.ar    1  UNL1        0.1795
     28 O          61.9615   82.2110   14.5205 O.2     1  UNL1       -0.4461
     29 C          62.6611   82.6804   13.2795 C.ar    1  UNL1        0.1948
@<TRIPOS>BOND
     1    24    25    1
     2    25    26   ar
     3    26    27   ar
     4    27    28   ar
     5    28    29   ar
     6    29    20    1
     7    20    21    2
     8    20    22   am
     9    22     1    1
    10     1     2   ar
    11     2     3   ar
    12     3     4   ar
    13     4     8    1
    14     8     9   am
    15     9    10    2
    16     9    11    1
    17    11    12   ar
    18    12    13   ar
    19    13    14   ar
    20    14    15    1
    21    14    16   ar
    22    16    17   ar
    23    17    18    1
    24    18    19    2
    25     4     5   ar
    26     5     6   ar
    27     6     7    1
    28    29    25   ar
    29     6     1   ar
    30    18     8   am
    31    17    11   ar
    32    22    23    1
@<TRIPOS>MOLECULE
*****
 29 32 0 0 0
SMALL
GASTEIGER

@<TRIPOS>ATOM
      1 C          60.7810   88.8068    8.9154 C.ar    1  UNL1        0.0785
      2 C          60.3103   87.3832    8.8737 C.ar    1  UNL1        0.0183
      3 C          60.9096   86.3676    9.8006 C.ar    1  UNL1        0.0168
      4 C          61.9797   86.7755   10.7693 C.ar    1  UNL1        0.0636
      5 C          62.4505   88.1991   10.8111 C.ar    1  UNL1        0.0462
      6 C          61.8511   89.2147    9.8841 C.ar    1  UNL1        0.1547
      7 F          62.3219   90.6384    9.9259 F       1  UNL1       -0.2028
      8 N          62.5791   85.7599   11.6963 N.am    1  UNL1       -0.2010
      9 C          63.3112   86.0540   12.9720 C.2     1  UNL1        0.2589
     10 O          63.5725   87.4155   13.5447 O.2     1  UNL1       -0.2691
     11 C          63.7361   84.7477   13.5744 C.ar    1  UNL1        0.0588
     12 C          64.4899   84.4189   14.8289 C.ar    1  UNL1        0.0070
     13 C          64.7742   82.9886   15.1799 C.ar    1  UNL1        0.0298
     14 C          64.3047   81.8870   14.2765 C.ar    1  UNL1        0.1403
     15 F          64.5890   80.4566   14.6276 F       1  UNL1       -0.2042
     16 C          63.5509   82.2158   13.0221 C.ar    1  UNL1        0.0343
     17 C          63.2666   83.6461   12.6710 C.ar    1  UNL1        0.0609
     18 C          62.5515   84.2717   11.5103 C.2     1  UNL1        0.2590
     19 O          61.9198   83.5379   10.3647 O.2     1  UNL1       -0.2691
     20 C          59.3455   89.3758    6.8260 C.2     1  UNL1        0.2840
     21 O          59.1087   87.9134    6.5905 O.2     1  UNL1       -0.2665
     22 N          60.1817   89.8225    7.9885 N.am    1  UNL1       -0.2761
     23 H          60.3371   90.7822    8.1430 H       1  UNL1        0.1553
     24 C          60.9833   91.2444    4.7105 C.3     1  UNL1        0.0345
     25 C          59.4990   91.2504    4.9267 C.ar    1  UNL1        0.0204
     26 C          58.5068   92.1163    4.2084 C.ar    1  UNL1        0.0396
     27 C          57.1408   91.7925    4.7369 C.ar    1  UNL1        0.1795
     28 O          57.2888   90.7265    5.7818 O.2     1  UNL1       -0.4461
     29 C          58.7461   90.3914    5.8991 C.ar    1  UNL1        0.1948
@<TRIPOS>BOND
     1    24    25    1
     2    25    26   ar
     3    26    27   ar
     4    27    28   ar
     5    28    29   ar
     6    29    20    1
     7    20    21    2
     8    20    22   am
     9    22     1    1
    10     1     2   ar
    11     2     3   ar
    12     3     4   ar
    13     4     8    1
    14     8     9   am
    15     9    10    2
    16     9    11    1
    17    11    12   ar
    18    12    13   ar
    19    13    14   ar
    20    14    15    1
    21    14    16   ar
    22    16    17   ar
    23    17    18    1
    24    18    19    2
    25     4     5   ar
    26     5     6   ar
    27     6     7    1
    28    29    25   ar
    29     6     1   ar
    30    18     8   am
    31    17    11   ar
    32    22    23    1
@<TRIPOS>MOLECULE
*****
 29 32 0 0 0
SMALL
GASTEIGER

@<TRIPOS>ATOM
      1 C          64.0658   89.3629   13.2178 C.ar    1  UNL1        0.0785
      2 C          64.5190   88.5017   14.3593 C.ar    1  UNL1        0.0183
      3 C          64.1972   87.0366   14.3673 C.ar    1  UNL1        0.0168
      4 C          63.4224   86.4327   13.2338 C.ar    1  UNL1        0.0636
      5 C          62.9692   87.2939   12.0923 C.ar    1  UNL1        0.0462
      6 C          63.2910   88.7589   12.0843 C.ar    1  UNL1        0.1547
      7 F          62.8378   89.6201   10.9428 F       1  UNL1       -0.2028
      8 N          63.1006   84.9677   13.2418 N.am    1  UNL1       -0.2010
      9 C          62.3606   84.2333   14.3203 C.2     1  UNL1        0.2589
     10 O          61.8124   84.8351   15.5802 O.2     1  UNL1       -0.2691
     11 C          62.2651   82.7915   13.9178 C.ar    1  UNL1        0.0588
     12 C          61.6460   81.6011   14.5884 C.ar    1  UNL1        0.0070
     13 C          61.7078   80.2540   13.9317 C.ar    1  UNL1        0.0298
     14 C          62.3888   80.0972   12.6044 C.ar    1  UNL1        0.1403
     15 F          62.4506   78.7500   11.9476 F       1  UNL1       -0.2042
     16 C          63.0079   81.2876   11.9338 C.ar    1  UNL1        0.0343
     17 C          62.9460   82.6347   12.5905 C.ar    1  UNL1        0.0609
     18 C          63.4624   83.9796   12.1727 C.2     1  UNL1        0.2590
     19 O          64.2094   84.2832   10.9079 O.2     1  UNL1       -0.2691
     20 C          65.7708   91.2939   13.5552 C.2     1  UNL1        0.2840
     21 O          66.8325   90.2948   13.9085 O.2     1  UNL1       -0.2665
     22 N          64.3876   90.8279   13.2098 N.am    1  UNL1       -0.2761
     23 H          63.6908   91.4836   12.9779 H       1  UNL1        0.1553
     24 C          67.1199   92.9750   16.0054 C.3     1  UNL1        0.0345
     25 C          66.7127   93.5317   14.6735 C.ar    1  UNL1        0.0204
     26 C          66.8540   94.9589   14.2338 C.ar    1  UNL1        0.0396
     27 C          66.3213   95.0682   12.8359 C.ar    1  UNL1        0.1795
     28 O          65.8507   93.7086   12.4115 O.2     1  UNL1       -0.4461
     29 C          66.0926   92.7590   13.5471 C.ar    1  UNL1        0.1948
@<TRIPOS>BOND
     1    24    25    1
     2    25    26   ar
     3    26    27   ar
     4    27    28   ar
     5    28    29   ar
     6    29    20    1
     7    20    21    2
     8    20    22   am
     9    22     1    1
    10     1     2   ar
    11     2     3   ar
    12     3     4   ar
    13     4     8    1
    14     8     9   am
    15     9    10    2
    16     9    11    1
    17    11    12   ar
    18    12    13   ar
    19    13    14   ar
    20    14    15    1
    21    14    16   ar
    22    16    17   ar
    23    17    18    1
    24    18    19    2
    25     4     5   ar
    26     5     6   ar
    27     6     7    1
    28    29    25   ar
    29     6     1   ar
    30    18     8   am
    31    17    11   ar
    32    22    23    1
@<TRIPOS>MOLECULE
*****
 29 32 0 0 0
SMALL
GASTEIGER

@<TRIPOS>ATOM
      1 C          63.8960   86.7421   14.6953 C.ar    1  UNL1        0.0785
      2 C          63.4821   86.7462   13.2536 C.ar    1  UNL1        0.0183
      3 C          63.2974   85.4495   12.5226 C.ar    1  UNL1        0.0168
      4 C          63.5266   84.1486   13.2334 C.ar    1  UNL1        0.0636
      5 C          63.9405   84.1445   14.6751 C.ar    1  UNL1        0.0462
      6 C          64.1252   85.4413   15.4061 C.ar    1  UNL1        0.1547
      7 F          64.5392   85.4371   16.8479 F       1  UNL1       -0.2028
      8 N          63.3418   82.8519   12.5024 N.am    1  UNL1       -0.2010
      9 C          63.4652   82.6493   11.0213 C.2     1  UNL1        0.2589
     10 O          63.7950   83.7079   10.0111 O.2     1  UNL1       -0.2691
     11 C          63.2009   81.2022   10.7277 C.ar    1  UNL1        0.0588
     12 C          63.1843   80.4251    9.4448 C.ar    1  UNL1        0.0070
     13 C          62.8809   78.9563    9.4617 C.ar    1  UNL1        0.0298
     14 C          62.5942   78.2645   10.7614 C.ar    1  UNL1        0.1403
     15 F          62.2909   76.7955   10.7782 F       1  UNL1       -0.2042
     16 C          62.6108   79.0416   12.0443 C.ar    1  UNL1        0.0343
     17 C          62.9142   80.5105   12.0274 C.ar    1  UNL1        0.0609
     18 C          63.0013   81.5300   13.1242 C.2     1  UNL1        0.2590
     19 O          62.7857   81.2728   14.5862 O.2     1  UNL1       -0.2691
     20 C          64.1662   89.3259   14.6606 C.2     1  UNL1        0.2840
     21 O          64.0669   89.3161   13.1638 O.2     1  UNL1       -0.2665
     22 N          64.0808   88.0389   15.4263 N.am    1  UNL1       -0.2761
     23 H          64.1459   88.0453   16.4086 H       1  UNL1        0.1553
     24 C          66.5801   91.4696   14.1838 C.3     1  UNL1        0.0345
     25 C          65.4606   91.6080   15.1723 C.ar    1  UNL1        0.0204
     26 C          65.2539   92.7561   16.1154 C.ar    1  UNL1        0.0396
     27 C          64.0166   92.4802   16.9174 C.ar    1  UNL1        0.1795
     28 O          63.4586   91.1617   16.4700 O.2     1  UNL1       -0.4461
     29 C          64.3510   90.6226   15.3915 C.ar    1  UNL1        0.1948
@<TRIPOS>BOND
     1    24    25    1
     2    25    26   ar
     3    26    27   ar
     4    27    28   ar
     5    28    29   ar
     6    29    20    1
     7    20    21    2
     8    20    22   am
     9    22     1    1
    10     1     2   ar
    11     2     3   ar
    12     3     4   ar
    13     4     8    1
    14     8     9   am
    15     9    10    2
    16     9    11    1
    17    11    12   ar
    18    12    13   ar
    19    13    14   ar
    20    14    15    1
    21    14    16   ar
    22    16    17   ar
    23    17    18    1
    24    18    19    2
    25     4     5   ar
    26     5     6   ar
    27     6     7    1
    28    29    25   ar
    29     6     1   ar
    30    18     8   am
    31    17    11   ar
    32    22    23    1
