@<TRIPOS>MOLECULE
*****
 33 36 0 0 0
SMALL
GASTEIGER

@<TRIPOS>ATOM
      1 C          63.8147   89.5614   15.0947 C.2     1  UNL1        0.2320
      2 O          62.4154   89.4469   15.6227 O.2     1  UNL1       -0.2744
      3 N          64.6147   88.3235   14.8159 N.am    1  UNL1       -0.2639
      4 H          65.5331   88.3986   14.4693 H       1  UNL1        0.1567
      5 C          64.0154   86.9713   15.0651 C.ar    1  UNL1        0.1655
      6 N          63.8142   85.8936   14.0413 N.ar    1  UNL1       -0.2239
      7 C          63.1866   84.7155   14.7253 C.ar    1  UNL1        0.0913
      8 C          62.9998   85.0650   16.1721 C.ar    1  UNL1        0.0573
      9 S          63.5120   86.4591   16.3821 S.2     1  UNL1       -0.0508
     10 C          62.8115   83.4161   14.0766 C.ar    1  UNL1        0.0403
     11 C          61.9615   82.3401   14.6847 C.ar    1  UNL1        0.1021
     12 N          61.8453   81.2236   13.6899 N.ar    1  UNL1       -0.2269
     13 C          62.6235   81.6094   12.4669 C.ar    1  UNL1        0.1406
     14 N          62.8655   80.9020   11.1666 N.ar    1  UNL1       -0.3374
     15 C          63.7047   81.5496   10.1053 C.ar    1  UNL1        0.0735
     16 C          64.3018   82.9047   10.3444 C.ar    1  UNL1        0.0186
     17 C          64.0598   83.6122   11.6447 C.ar    1  UNL1        0.0046
     18 C          63.2207   82.9645   12.7060 C.ar    1  UNL1        0.0370
     19 H          62.4736   80.0126   11.0097 H       1  UNL1        0.1674
     20 C          64.4140   90.9136   14.8454 C.3     1  UNL1        0.1117
     21 C          65.7947   92.9503   11.7316 C.ar    1  UNL1        0.0641
     22 C          64.9371   92.4006   10.6305 C.ar    1  UNL1        0.0158
     23 C          63.9051   91.3553   10.9343 C.ar    1  UNL1        0.0010
     24 C          63.7308   90.8596   12.3394 C.ar    1  UNL1       -0.0037
     25 C          64.5884   91.4093   13.4405 C.ar    1  UNL1       -0.0118
     26 C          65.6204   92.4547   13.1365 C.ar    1  UNL1        0.0121
     27 N          66.8266   93.9956   11.4277 N.pl3   1  UNL1       -0.2188
     28 H          67.3633   94.3839   12.1560 H       1  UNL1        0.1734
     29 S          67.0410   94.4494   10.0141 S.O2    1  UNL1        0.0539
     30 O          68.1485   93.4493    9.8611 O.2     1  UNL1       -0.1545
     31 O          65.9335   95.4494   10.1671 O.2     1  UNL1       -0.1545
     32 C          67.2751   96.3677    8.2776 C.3     1  UNL1        0.0292
     33 C          67.2554   94.9030    8.6005 C.3     1  UNL1        0.1724
@<TRIPOS>BOND
     1    32    33    1
     2    33    29    1
     3    29    30    2
     4    29    31    2
     5    29    27    1
     6    27    21    1
     7    21    22   ar
     8    22    23   ar
     9    23    24   ar
    10    24    25   ar
    11    25    20    1
    12    20     1    1
    13     1     2    2
    14     1     3   am
    15     3     5    1
    16     5     6   ar
    17     6     7   ar
    18     7    10    1
    19    10    11   ar
    20    11    12   ar
    21    12    13   ar
    22    13    14   ar
    23    14    15   ar
    24    15    16   ar
    25    16    17   ar
    26    17    18   ar
    27     7     8   ar
    28     8     9   ar
    29    25    26   ar
    30    26    21   ar
    31     9     5   ar
    32    18    10   ar
    33    18    13    1
    34    27    28    1
    35     3     4    1
    36    14    19    1
@<TRIPOS>MOLECULE
*****
 33 36 0 0 0
SMALL
GASTEIGER

@<TRIPOS>ATOM
      1 C          63.6038   89.2837   13.6304 C.2     1  UNL1        0.2320
      2 O          63.6649   87.8287   13.2711 O.2     1  UNL1       -0.2744
      3 N          62.4851   90.1379   13.1120 N.am    1  UNL1       -0.2639
      4 H          62.4450   91.0929   13.3478 H       1  UNL1        0.1567
      5 C          61.4276   89.5372   12.2342 C.ar    1  UNL1        0.1655
      6 N          61.6663   88.7126   11.0041 N.ar    1  UNL1       -0.2239
      7 C          60.3319   88.3213   10.4420 C.ar    1  UNL1        0.0913
      8 C          59.2682   88.9040   11.3247 C.ar    1  UNL1        0.0573
      9 S          59.9454   89.6555   12.4323 S.2     1  UNL1       -0.0508
     10 C          60.1014   87.4927    9.2131 C.ar    1  UNL1        0.0403
     11 C          58.8604   87.4915    8.3705 C.ar    1  UNL1        0.1021
     12 N          59.0636   86.5179    7.2476 N.ar    1  UNL1       -0.2269
     13 C          60.4301   85.9175    7.3962 C.ar    1  UNL1        0.1406
     14 N          61.1733   84.9000    6.5823 N.ar    1  UNL1       -0.3374
     15 C          62.5578   84.4850    6.9831 C.ar    1  UNL1        0.0735
     16 C          63.1993   85.0875    8.1979 C.ar    1  UNL1        0.0186
     17 C          62.4561   86.1050    9.0118 C.ar    1  UNL1        0.0046
     18 C          61.0716   86.5200    8.6109 C.ar    1  UNL1        0.0370
     19 H          60.7523   84.5046    5.7850 H       1  UNL1        0.1674
     20 C          64.6614   89.8845   14.5083 C.3     1  UNL1        0.1117
     21 C          65.7377   93.0638   12.3907 C.ar    1  UNL1        0.0641
     22 C          66.5159   93.8361   13.4144 C.ar    1  UNL1        0.0158
     23 C          66.6759   93.2912   14.8028 C.ar    1  UNL1        0.0010
     24 C          66.0577   91.9739   15.1674 C.ar    1  UNL1       -0.0037
     25 C          65.2795   91.2017   14.1436 C.ar    1  UNL1       -0.0118
     26 C          65.1195   91.7466   12.7553 C.ar    1  UNL1        0.0121
     27 N          65.5776   93.6087   11.0024 N.pl3   1  UNL1       -0.2188
     28 H          64.6976   93.9275   10.6971 H       1  UNL1        0.1734
     29 S          66.7583   93.6677   10.0791 S.O2    1  UNL1        0.0539
     30 O          66.5366   95.1392    9.8898 O.2     1  UNL1       -0.1545
     31 O          66.9800   92.1964   10.2684 O.2     1  UNL1       -0.1545
     32 C          68.7445   92.4902    8.8879 C.3     1  UNL1        0.0292
     33 C          67.9390   93.7269    9.1558 C.3     1  UNL1        0.1724
@<TRIPOS>BOND
     1    32    33    1
     2    33    29    1
     3    29    30    2
     4    29    31    2
     5    29    27    1
     6    27    21    1
     7    21    22   ar
     8    22    23   ar
     9    23    24   ar
    10    24    25   ar
    11    25    20    1
    12    20     1    1
    13     1     2    2
    14     1     3   am
    15     3     5    1
    16     5     6   ar
    17     6     7   ar
    18     7    10    1
    19    10    11   ar
    20    11    12   ar
    21    12    13   ar
    22    13    14   ar
    23    14    15   ar
    24    15    16   ar
    25    16    17   ar
    26    17    18   ar
    27     7     8   ar
    28     8     9   ar
    29    25    26   ar
    30    26    21   ar
    31     9     5   ar
    32    18    10   ar
    33    18    13    1
    34    27    28    1
    35     3     4    1
    36    14    19    1
@<TRIPOS>MOLECULE
*****
 33 36 0 0 0
SMALL
GASTEIGER

@<TRIPOS>ATOM
      1 C          62.1586   86.7211   10.5060 C.2     1  UNL1        0.2320
      2 O          62.7555   87.0315    9.1654 O.2     1  UNL1       -0.2744
      3 N          62.0728   87.7903   11.5545 N.am    1  UNL1       -0.2639
      4 H          61.6811   87.5866   12.4344 H       1  UNL1        0.1567
      5 C          62.5839   89.1699   11.2624 C.ar    1  UNL1        0.1655
      6 N          63.7212   89.8550   11.9604 N.ar    1  UNL1       -0.2239
      7 C          63.8878   91.2152   11.3504 C.ar    1  UNL1        0.0913
      8 C          62.8533   91.3708   10.2753 C.ar    1  UNL1        0.0573
      9 S          62.0476   90.1068   10.2209 S.2     1  UNL1       -0.0508
     10 C          64.9093   92.2399   11.7459 C.ar    1  UNL1        0.0403
     11 C          65.4937   93.2931   10.8519 C.ar    1  UNL1        0.1021
     12 N          66.4713   94.0953   11.6584 N.ar    1  UNL1       -0.2269
     13 C          66.4912   93.5380   13.0509 C.ar    1  UNL1        0.1406
     14 N          67.2636   93.9266   14.2766 N.ar    1  UNL1       -0.3374
     15 C          67.0706   93.1684   15.5564 C.ar    1  UNL1        0.0735
     16 C          66.1052   92.0217   15.6105 C.ar    1  UNL1        0.0186
     17 C          65.3328   91.6331   14.3848 C.ar    1  UNL1        0.0046
     18 C          65.5258   92.3913   13.1050 C.ar    1  UNL1        0.0370
     19 H          67.8972   94.6793   14.2411 H       1  UNL1        0.1674
     20 C          61.6474   85.3415   10.7982 C.3     1  UNL1        0.1117
     21 C          63.6041   83.5676   13.7605 C.ar    1  UNL1        0.0641
     22 C          64.2290   82.4125   13.0358 C.ar    1  UNL1        0.0158
     23 C          63.9933   82.2336   11.5653 C.ar    1  UNL1        0.0010
     24 C          63.1328   83.2100   10.8193 C.ar    1  UNL1       -0.0037
     25 C          62.5079   84.3652   11.5441 C.ar    1  UNL1       -0.0118
     26 C          62.7436   84.5440   13.0147 C.ar    1  UNL1        0.0121
     27 N          63.8397   83.7465   15.2310 N.pl3   1  UNL1       -0.2188
     28 H          64.1513   82.9877   15.7755 H       1  UNL1        0.1734
     29 S          63.6006   85.0814   15.8720 S.O2    1  UNL1        0.0539
     30 O          64.8978   85.5834   15.3103 O.2     1  UNL1       -0.1545
     31 O          62.3034   84.5794   16.4336 O.2     1  UNL1       -0.1545
     32 C          62.6380   86.5001   17.8242 C.3     1  UNL1        0.0292
     33 C          63.3615   86.4164   16.5130 C.3     1  UNL1        0.1724
@<TRIPOS>BOND
     1    32    33    1
     2    33    29    1
     3    29    30    2
     4    29    31    2
     5    29    27    1
     6    27    21    1
     7    21    22   ar
     8    22    23   ar
     9    23    24   ar
    10    24    25   ar
    11    25    20    1
    12    20     1    1
    13     1     2    2
    14     1     3   am
    15     3     5    1
    16     5     6   ar
    17     6     7   ar
    18     7    10    1
    19    10    11   ar
    20    11    12   ar
    21    12    13   ar
    22    13    14   ar
    23    14    15   ar
    24    15    16   ar
    25    16    17   ar
    26    17    18   ar
    27     7     8   ar
    28     8     9   ar
    29    25    26   ar
    30    26    21   ar
    31     9     5   ar
    32    18    10   ar
    33    18    13    1
    34    27    28    1
    35     3     4    1
    36    14    19    1
@<TRIPOS>MOLECULE
*****
 33 36 0 0 0
SMALL
GASTEIGER

@<TRIPOS>ATOM
      1 C          61.5325   87.3026   11.5072 C.2     1  UNL1        0.2320
      2 O          60.4827   88.3663   11.6351 O.2     1  UNL1       -0.2744
      3 N          62.9516   87.5993   11.8922 N.am    1  UNL1       -0.2639
      4 H          63.6406   86.9011   11.8082 H       1  UNL1        0.1567
      5 C          63.3208   88.9595   12.4051 C.ar    1  UNL1        0.1655
      6 N          63.9997   89.2557   13.7095 N.ar    1  UNL1       -0.2239
      7 C          64.1745   90.7417   13.8143 C.ar    1  UNL1        0.0913
      8 C          63.6036   91.3641   12.5747 C.ar    1  UNL1        0.0573
      9 S          63.0760   90.2627   11.7038 S.2     1  UNL1       -0.0508
     10 C          64.8088   91.4764   14.9579 C.ar    1  UNL1        0.0403
     11 C          64.1441   91.8316   16.2548 C.ar    1  UNL1        0.1021
     12 N          65.1437   92.5596   17.1038 N.ar    1  UNL1       -0.2269
     13 C          66.4261   92.6545   16.3315 C.ar    1  UNL1        0.1406
     14 N          67.7556   93.2639   16.6647 N.ar    1  UNL1       -0.3374
     15 C          68.8781   93.2039   15.6715 C.ar    1  UNL1        0.0735
     16 C          68.6711   92.5345   14.3452 C.ar    1  UNL1        0.0186
     17 C          67.3416   91.9250   14.0121 C.ar    1  UNL1        0.0046
     18 C          66.2192   91.9850   15.0053 C.ar    1  UNL1        0.0370
     19 H          67.8915   93.7033   17.5351 H       1  UNL1        0.1674
     20 C          61.1633   85.9422   10.9942 C.3     1  UNL1        0.1117
     21 C          63.7167   82.9601   11.5747 C.ar    1  UNL1        0.0641
     22 C          64.3703   82.8801   10.2270 C.ar    1  UNL1        0.0158
     23 C          63.9549   83.8208    9.1349 C.ar    1  UNL1        0.0010
     24 C          62.8858   84.8416    9.3907 C.ar    1  UNL1       -0.0037
     25 C          62.2323   84.9215   10.7385 C.ar    1  UNL1       -0.0118
     26 C          62.6477   83.9808   11.8305 C.ar    1  UNL1        0.0121
     27 N          64.1321   82.0194   12.6668 N.pl3   1  UNL1       -0.2188
     28 H          65.0845   81.9209   12.8957 H       1  UNL1        0.1734
     29 S          63.0964   81.2288   13.4099 S.O2    1  UNL1        0.0539
     30 O          63.3783   82.0249   14.6497 O.2     1  UNL1       -0.1545
     31 O          62.8144   80.4328   12.1702 O.2     1  UNL1       -0.1545
     32 C          60.6150   80.8294   14.0686 C.3     1  UNL1        0.0292
     33 C          62.0606   80.4383   14.1531 C.3     1  UNL1        0.1724
@<TRIPOS>BOND
     1    32    33    1
     2    33    29    1
     3    29    30    2
     4    29    31    2
     5    29    27    1
     6    27    21    1
     7    21    22   ar
     8    22    23   ar
     9    23    24   ar
    10    24    25   ar
    11    25    20    1
    12    20     1    1
    13     1     2    2
    14     1     3   am
    15     3     5    1
    16     5     6   ar
    17     6     7   ar
    18     7    10    1
    19    10    11   ar
    20    11    12   ar
    21    12    13   ar
    22    13    14   ar
    23    14    15   ar
    24    15    16   ar
    25    16    17   ar
    26    17    18   ar
    27     7     8   ar
    28     8     9   ar
    29    25    26   ar
    30    26    21   ar
    31     9     5   ar
    32    18    10   ar
    33    18    13    1
    34    27    28    1
    35     3     4    1
    36    14    19    1
@<TRIPOS>MOLECULE
*****
 33 36 0 0 0
SMALL
GASTEIGER

@<TRIPOS>ATOM
      1 C          62.2466   87.1599   10.5681 C.2     1  UNL1        0.2320
      2 O          61.9945   88.3425    9.6804 O.2     1  UNL1       -0.2744
      3 N          62.8372   87.3587   11.9325 N.am    1  UNL1       -0.2639
      4 H          63.0026   86.5826   12.5151 H       1  UNL1        0.1567
      5 C          63.1757   88.7400   12.4092 C.ar    1  UNL1        0.1655
      6 N          63.8559   89.0850   13.7009 N.ar    1  UNL1       -0.2239
      7 C          63.9940   90.5771   13.7680 C.ar    1  UNL1        0.0913
      8 C          63.3992   91.1544   12.5178 C.ar    1  UNL1        0.0573
      9 S          62.8934   90.0190   11.6781 S.2     1  UNL1       -0.0508
     10 C          64.6175   91.3553   14.8885 C.ar    1  UNL1        0.0403
     11 C          63.9421   91.7557   16.1666 C.ar    1  UNL1        0.1021
     12 N          64.9331   92.5176   16.9956 N.ar    1  UNL1       -0.2269
     13 C          66.2210   92.5882   16.2299 C.ar    1  UNL1        0.1406
     14 N          67.5461   93.2137   16.5503 N.ar    1  UNL1       -0.3374
     15 C          68.6763   93.1209   15.5684 C.ar    1  UNL1        0.0735
     16 C          68.4812   92.4025   14.2661 C.ar    1  UNL1        0.0186
     17 C          67.1561   91.7770   13.9458 C.ar    1  UNL1        0.0046
     18 C          66.0260   91.8698   14.9277 C.ar    1  UNL1        0.0370
     19 H          67.6741   93.6852   17.4050 H       1  UNL1        0.1674
     20 C          61.9081   85.7786   10.0914 C.3     1  UNL1        0.1117
     21 C          63.5165   83.0622   12.4964 C.ar    1  UNL1        0.0641
     22 C          64.3146   82.2534   11.5171 C.ar    1  UNL1        0.0158
     23 C          64.3105   82.6197   10.0625 C.ar    1  UNL1        0.0010
     24 C          63.5083   83.7948    9.5872 C.ar    1  UNL1       -0.0037
     25 C          62.7102   84.6035   10.5666 C.ar    1  UNL1       -0.0118
     26 C          62.7144   84.2372   12.0212 C.ar    1  UNL1        0.0121
     27 N          63.5206   82.6959   13.9510 N.pl3   1  UNL1       -0.2188
     28 H          63.5071   81.7490   14.2202 H       1  UNL1        0.1734
     29 S          63.5453   83.7722   14.9954 S.O2    1  UNL1        0.0539
     30 O          62.1371   83.4294   15.3821 O.2     1  UNL1       -0.1545
     31 O          64.9535   84.1151   14.6088 O.2     1  UNL1       -0.1545
     32 C          64.1163   86.2052   15.7062 C.3     1  UNL1        0.0292
     33 C          63.5700   84.8487   16.0399 C.3     1  UNL1        0.1724
@<TRIPOS>BOND
     1    32    33    1
     2    33    29    1
     3    29    30    2
     4    29    31    2
     5    29    27    1
     6    27    21    1
     7    21    22   ar
     8    22    23   ar
     9    23    24   ar
    10    24    25   ar
    11    25    20    1
    12    20     1    1
    13     1     2    2
    14     1     3   am
    15     3     5    1
    16     5     6   ar
    17     6     7   ar
    18     7    10    1
    19    10    11   ar
    20    11    12   ar
    21    12    13   ar
    22    13    14   ar
    23    14    15   ar
    24    15    16   ar
    25    16    17   ar
    26    17    18   ar
    27     7     8   ar
    28     8     9   ar
    29    25    26   ar
    30    26    21   ar
    31     9     5   ar
    32    18    10   ar
    33    18    13    1
    34    27    28    1
    35     3     4    1
    36    14    19    1
@<TRIPOS>MOLECULE
*****
 33 36 0 0 0
SMALL
GASTEIGER

@<TRIPOS>ATOM
      1 C          63.1965   89.1382   12.5369 C.2     1  UNL1        0.2320
      2 O          62.1046   88.2485   12.0211 O.2     1  UNL1       -0.2744
      3 N          64.1191   88.6466   13.6126 N.am    1  UNL1       -0.2639
      4 H          64.8358   89.2306   13.9512 H       1  UNL1        0.1567
      5 C          63.9498   87.2655   14.1725 C.ar    1  UNL1        0.1655
      6 N          63.4906   86.0563   13.4129 N.ar    1  UNL1       -0.2239
      7 C          63.4669   84.8944   14.3612 C.ar    1  UNL1        0.0913
      8 C          63.9115   85.3854   15.7070 C.ar    1  UNL1        0.0573
      9 S          64.2099   86.8508   15.5904 S.2     1  UNL1       -0.0508
     10 C          63.0687   83.4883   14.0231 C.ar    1  UNL1        0.0403
     11 C          62.3968   82.5160   14.9468 C.ar    1  UNL1        0.1021
     12 N          62.1853   81.2344   14.1965 N.ar    1  UNL1       -0.2269
     13 C          62.7264   81.4147   12.8092 C.ar    1  UNL1        0.1406
     14 N          62.7925   80.4904   11.6297 N.ar    1  UNL1       -0.3374
     15 C          63.4047   80.9591   10.3430 C.ar    1  UNL1        0.0735
     16 C          63.9507   82.3521   10.2359 C.ar    1  UNL1        0.0186
     17 C          63.8845   83.2764   11.4154 C.ar    1  UNL1        0.0046
     18 C          63.2724   82.8077   12.7020 C.ar    1  UNL1        0.0370
     19 H          62.4342   79.5762   11.7000 H       1  UNL1        0.1674
     20 C          63.3659   90.5194   11.9770 C.3     1  UNL1        0.1117
     21 C          66.1407   93.3482   12.1983 C.ar    1  UNL1        0.0641
     22 C          66.5307   93.2503   13.6434 C.ar    1  UNL1        0.0158
     23 C          65.8658   92.2421   14.5330 C.ar    1  UNL1        0.0010
     24 C          64.8108   91.3318   13.9776 C.ar    1  UNL1       -0.0037
     25 C          64.4208   91.4297   12.5324 C.ar    1  UNL1       -0.0118
     26 C          65.0858   92.4379   11.6428 C.ar    1  UNL1        0.0121
     27 N          66.8056   94.3563   11.3086 N.pl3   1  UNL1       -0.2188
     28 H          66.8550   95.3000   11.5849 H       1  UNL1        0.1734
     29 S          67.3953   93.9267    9.9980 S.O2    1  UNL1        0.0539
     30 O          66.6343   95.0143    9.2992 O.2     1  UNL1       -0.1545
     31 O          68.1562   92.8392   10.6967 O.2     1  UNL1       -0.1545
     32 C          68.7698   92.2219    8.5998 C.3     1  UNL1        0.0292
     33 C          67.9849   93.4972    8.6873 C.3     1  UNL1        0.1724
@<TRIPOS>BOND
     1    32    33    1
     2    33    29    1
     3    29    30    2
     4    29    31    2
     5    29    27    1
     6    27    21    1
     7    21    22   ar
     8    22    23   ar
     9    23    24   ar
    10    24    25   ar
    11    25    20    1
    12    20     1    1
    13     1     2    2
    14     1     3   am
    15     3     5    1
    16     5     6   ar
    17     6     7   ar
    18     7    10    1
    19    10    11   ar
    20    11    12   ar
    21    12    13   ar
    22    13    14   ar
    23    14    15   ar
    24    15    16   ar
    25    16    17   ar
    26    17    18   ar
    27     7     8   ar
    28     8     9   ar
    29    25    26   ar
    30    26    21   ar
    31     9     5   ar
    32    18    10   ar
    33    18    13    1
    34    27    28    1
    35     3     4    1
    36    14    19    1
@<TRIPOS>MOLECULE
*****
 33 36 0 0 0
SMALL
GASTEIGER

@<TRIPOS>ATOM
      1 C          63.5858   89.2255   13.8837 C.2     1  UNL1        0.2320
      2 O          64.2147   87.9485   14.3567 O.2     1  UNL1       -0.2744
      3 N          62.7472   89.2328   12.6401 N.am    1  UNL1       -0.2639
      4 H          62.3344   90.0710   12.3296 H       1  UNL1        0.1567
      5 C          62.5375   87.9632   11.8694 C.ar    1  UNL1        0.1655
      6 N          63.1217   86.6225   12.2030 N.ar    1  UNL1       -0.2239
      7 C          62.6520   85.6420   11.1696 C.ar    1  UNL1        0.0913
      8 C          61.7774   86.3767   10.1973 C.ar    1  UNL1        0.0573
      9 S          61.7066   87.8112   10.6298 S.2     1  UNL1       -0.0508
     10 C          62.9963   84.1830   11.1176 C.ar    1  UNL1        0.0403
     11 C          63.6447   83.4706    9.9678 C.ar    1  UNL1        0.1021
     12 N          63.8019   82.0276   10.3459 N.ar    1  UNL1       -0.2269
     13 C          63.2505   81.8481   11.7293 C.ar    1  UNL1        0.1406
     14 N          63.1375   80.6439   12.6164 N.ar    1  UNL1       -0.3374
     15 C          62.5267   80.7717   13.9803 C.ar    1  UNL1        0.0735
     16 C          62.0288   82.1039   14.4573 C.ar    1  UNL1        0.0186
     17 C          62.1418   83.3082   13.5702 C.ar    1  UNL1        0.0046
     18 C          62.7527   83.1803   12.2063 C.ar    1  UNL1        0.0370
     19 H          63.4643   79.7695   12.3033 H       1  UNL1        0.1674
     20 C          63.7955   90.4952   14.6544 C.3     1  UNL1        0.1117
     21 C          66.0154   92.7503   12.2592 C.ar    1  UNL1        0.0641
     22 C          66.8468   93.4950   13.2612 C.ar    1  UNL1        0.0158
     23 C          66.6612   93.2398   14.7276 C.ar    1  UNL1        0.0010
     24 C          65.6441   92.2398   15.1921 C.ar    1  UNL1       -0.0037
     25 C          64.8126   91.4951   14.1899 C.ar    1  UNL1       -0.0118
     26 C          64.9983   91.7504   12.7235 C.ar    1  UNL1        0.0121
     27 N          66.2010   93.0055   10.7927 N.pl3   1  UNL1       -0.2188
     28 H          66.0130   92.2918   10.1412 H       1  UNL1        0.1734
     29 S          66.6730   94.3482   10.3190 S.O2    1  UNL1        0.0539
     30 O          65.3206   94.9272   10.6127 O.2     1  UNL1       -0.1545
     31 O          68.0252   93.7693   10.0253 O.2     1  UNL1       -0.1545
     32 C          66.7484   96.1890    8.4870 C.3     1  UNL1        0.0292
     33 C          67.1448   95.6910    9.8452 C.3     1  UNL1        0.1724
@<TRIPOS>BOND
     1    32    33    1
     2    33    29    1
     3    29    30    2
     4    29    31    2
     5    29    27    1
     6    27    21    1
     7    21    22   ar
     8    22    23   ar
     9    23    24   ar
    10    24    25   ar
    11    25    20    1
    12    20     1    1
    13     1     2    2
    14     1     3   am
    15     3     5    1
    16     5     6   ar
    17     6     7   ar
    18     7    10    1
    19    10    11   ar
    20    11    12   ar
    21    12    13   ar
    22    13    14   ar
    23    14    15   ar
    24    15    16   ar
    25    16    17   ar
    26    17    18   ar
    27     7     8   ar
    28     8     9   ar
    29    25    26   ar
    30    26    21   ar
    31     9     5   ar
    32    18    10   ar
    33    18    13    1
    34    27    28    1
    35     3     4    1
    36    14    19    1
@<TRIPOS>MOLECULE
*****
 33 36 0 0 0
SMALL
GASTEIGER

@<TRIPOS>ATOM
      1 C          64.5700   85.9982   14.9266 C.2     1  UNL1        0.2320
      2 O          65.9814   86.4210   15.2079 O.2     1  UNL1       -0.2744
      3 N          63.4667   87.0145   14.9354 N.am    1  UNL1       -0.2639
      4 H          62.5404   86.7370   14.7508 H       1  UNL1        0.1567
      5 C          63.7749   88.4535   15.2254 C.ar    1  UNL1        0.1655
      6 N          64.6888   89.3373   14.4294 N.ar    1  UNL1       -0.2239
      7 C          64.7020   90.6914   15.0743 C.ar    1  UNL1        0.0913
      8 C          63.7962   90.6446   16.2690 C.ar    1  UNL1        0.0573
      9 S          63.2232   89.2615   16.3624 S.2     1  UNL1       -0.0508
     10 C          65.4837   91.8832   14.6067 C.ar    1  UNL1        0.0403
     11 C          66.3478   92.7616   15.4621 C.ar    1  UNL1        0.1021
     12 N          66.9367   93.8271   14.5856 N.ar    1  UNL1       -0.2269
     13 C          66.4365   93.6071   13.1887 C.ar    1  UNL1        0.1406
     14 N          66.6828   94.3455   11.9065 N.ar    1  UNL1       -0.3374
     15 C          66.0310   93.8825   10.6374 C.ar    1  UNL1        0.0735
     16 C          65.1330   92.6811   10.6504 C.ar    1  UNL1        0.0186
     17 C          64.8867   91.9427   11.9326 C.ar    1  UNL1        0.0046
     18 C          65.5385   92.4057   13.2017 C.ar    1  UNL1        0.0370
     19 H          67.2722   95.1340   11.8980 H       1  UNL1        0.1674
     20 C          64.2618   84.5591   14.6366 C.3     1  UNL1        0.1117
     21 C          62.5769   84.5026   11.0438 C.ar    1  UNL1        0.0641
     22 C          63.2150   83.2816   10.4506 C.ar    1  UNL1        0.0158
     23 C          64.2021   82.4864   11.2527 C.ar    1  UNL1        0.0010
     24 C          64.5510   82.9122   12.6481 C.ar    1  UNL1       -0.0037
     25 C          63.9128   84.1333   13.2413 C.ar    1  UNL1       -0.0118
     26 C          62.9258   84.9285   12.4391 C.ar    1  UNL1        0.0121
     27 N          61.5898   85.2978   10.2417 N.pl3   1  UNL1       -0.2188
     28 H          60.8772   84.8377    9.7420 H       1  UNL1        0.1734
     29 S          61.6885   86.7940   10.2010 S.O2    1  UNL1        0.0539
     30 O          62.5178   86.7053    8.9542 O.2     1  UNL1       -0.1545
     31 O          60.8592   86.8826   11.4477 O.2     1  UNL1       -0.1545
     32 C          60.8638   89.0791    9.2800 C.3     1  UNL1        0.0292
     33 C          61.7872   88.2902   10.1602 C.3     1  UNL1        0.1724
@<TRIPOS>BOND
     1    32    33    1
     2    33    29    1
     3    29    30    2
     4    29    31    2
     5    29    27    1
     6    27    21    1
     7    21    22   ar
     8    22    23   ar
     9    23    24   ar
    10    24    25   ar
    11    25    20    1
    12    20     1    1
    13     1     2    2
    14     1     3   am
    15     3     5    1
    16     5     6   ar
    17     6     7   ar
    18     7    10    1
    19    10    11   ar
    20    11    12   ar
    21    12    13   ar
    22    13    14   ar
    23    14    15   ar
    24    15    16   ar
    25    16    17   ar
    26    17    18   ar
    27     7     8   ar
    28     8     9   ar
    29    25    26   ar
    30    26    21   ar
    31     9     5   ar
    32    18    10   ar
    33    18    13    1
    34    27    28    1
    35     3     4    1
    36    14    19    1
@<TRIPOS>MOLECULE
*****
 33 36 0 0 0
SMALL
GASTEIGER

@<TRIPOS>ATOM
      1 C          62.4222   85.6390   10.5779 C.2     1  UNL1        0.2320
      2 O          62.8467   86.3448    9.3243 O.2     1  UNL1       -0.2744
      3 N          62.2482   86.4120   11.8516 N.am    1  UNL1       -0.2639
      4 H          61.9696   85.9488   12.6744 H       1  UNL1        0.1567
      5 C          62.4986   87.8907   11.8716 C.ar    1  UNL1        0.1655
      6 N          63.5686   88.5934   12.6535 N.ar    1  UNL1       -0.2239
      7 C          63.4543   90.0634   12.3784 C.ar    1  UNL1        0.0913
      8 C          62.3137   90.2695   11.4263 C.ar    1  UNL1        0.0573
      9 S          61.7230   88.9267   11.1131 S.2     1  UNL1       -0.0508
     10 C          64.3274   91.1387   12.9541 C.ar    1  UNL1        0.0403
     11 C          64.6464   91.3317   14.4071 C.ar    1  UNL1        0.1021
     12 N          65.5509   92.5221   14.5289 N.ar    1  UNL1       -0.2269
     13 C          65.7910   93.0648   13.1513 C.ar    1  UNL1        0.1406
     14 N          66.6004   94.2270   12.6573 N.ar    1  UNL1       -0.3374
     15 C          66.6537   94.5342   11.1901 C.ar    1  UNL1        0.0735
     16 C          65.8975   93.6793   10.2169 C.ar    1  UNL1        0.0186
     17 C          65.0881   92.5170   10.7108 C.ar    1  UNL1        0.0046
     18 C          65.0348   92.2098   12.1780 C.ar    1  UNL1        0.0370
     19 H          67.0967   94.7881   13.2961 H       1  UNL1        0.1674
     20 C          62.1718   84.1602   10.5580 C.3     1  UNL1        0.1117
     21 C          63.7901   83.0664   14.0127 C.ar    1  UNL1        0.0641
     22 C          63.7068   81.5727   13.9044 C.ar    1  UNL1        0.0158
     23 C          63.1118   80.9414   12.6807 C.ar    1  UNL1        0.0010
     24 C          62.6001   81.8039   11.5652 C.ar    1  UNL1       -0.0037
     25 C          62.6835   83.2977   11.6735 C.ar    1  UNL1       -0.0118
     26 C          63.2785   83.9289   12.8972 C.ar    1  UNL1        0.0121
     27 N          64.3851   83.6977   15.2364 N.pl3   1  UNL1       -0.2188
     28 H          65.1130   83.2442   15.7198 H       1  UNL1        0.1734
     29 S          63.8711   85.0200   15.7235 S.O2    1  UNL1        0.0539
     30 O          65.1141   85.6898   15.2170 O.2     1  UNL1       -0.1545
     31 O          62.6281   84.3504   16.2299 O.2     1  UNL1       -0.1545
     32 C          62.7346   86.4503   17.5710 C.3     1  UNL1        0.0292
     33 C          63.3571   86.3424   16.2105 C.3     1  UNL1        0.1724
@<TRIPOS>BOND
     1    32    33    1
     2    33    29    1
     3    29    30    2
     4    29    31    2
     5    29    27    1
     6    27    21    1
     7    21    22   ar
     8    22    23   ar
     9    23    24   ar
    10    24    25   ar
    11    25    20    1
    12    20     1    1
    13     1     2    2
    14     1     3   am
    15     3     5    1
    16     5     6   ar
    17     6     7   ar
    18     7    10    1
    19    10    11   ar
    20    11    12   ar
    21    12    13   ar
    22    13    14   ar
    23    14    15   ar
    24    15    16   ar
    25    16    17   ar
    26    17    18   ar
    27     7     8   ar
    28     8     9   ar
    29    25    26   ar
    30    26    21   ar
    31     9     5   ar
    32    18    10   ar
    33    18    13    1
    34    27    28    1
    35     3     4    1
    36    14    19    1
