@<TRIPOS>MOLECULE
*****
 36 39 0 0 0
SMALL
GASTEIGER

@<TRIPOS>ATOM
      1 N          63.6108   88.9749   16.0464 N.pl3   1  UNL1       -0.3061
      2 H          63.4525   89.4250   16.9076 H       1  UNL1        0.1495
      3 C          64.7471   92.0940   11.0780 C.ar    1  UNL1        0.1580
      4 N          63.5170   91.7434   10.2946 N.ar    1  UNL1       -0.1313
      5 N          62.6770   90.8284   11.1356 N.ar    1  UNL1       -0.1290
      6 C          63.3881   90.6134   12.4387 C.ar    1  UNL1        0.1683
      7 N          63.0359   89.8065   13.6531 N.ar    1  UNL1       -0.3106
      8 C          63.9630   89.7818   14.8319 C.ar    1  UNL1        0.1956
      9 N          65.2425   90.5641   14.7964 N.ar    1  UNL1       -0.2137
     10 C          65.5947   91.3709   13.5820 C.ar    1  UNL1        0.1076
     11 C          64.6675   91.3956   12.4032 C.ar    1  UNL1        0.0882
     12 H          62.1961   89.2932   13.6765 H       1  UNL1        0.1701
     13 C          66.7326   96.8544   10.4482 C.3     1  UNL1        0.0339
     14 C          66.8541   95.3664   10.3023 C.3     1  UNL1        0.1351
     15 C          65.7399   94.4741   10.7631 C.3     1  UNL1        0.1217
     16 N          65.8614   92.9863   10.6172 N.pl3   1  UNL1       -0.2867
     17 C          67.0972   92.3906   10.0105 C.3     1  UNL1        0.1243
     18 C          68.2114   93.2829    9.5497 C.3     1  UNL1        0.1635
     19 O          68.0899   94.7708    9.6956 O.3     1  UNL1       -0.3527
     20 C          63.4999   87.4822   15.9488 C.3     1  UNL1        0.0718
     21 C          64.2759   86.7393   14.9019 C.3     1  UNL1        0.0210
     22 C          64.1650   85.2466   14.8042 C.3     1  UNL1        0.0191
     23 C          63.2780   84.4968   15.7535 C.3     1  UNL1        0.0752
     24 C          62.5020   85.2397   16.8003 C.3     1  UNL1        0.0191
     25 C          62.6129   86.7324   16.8980 C.3     1  UNL1        0.0210
     26 N          63.1670   83.0041   15.6559 N.3     1  UNL1       -0.1847
     27 H          62.4258   82.7214   16.2970 H       1  UNL1        0.1484
     28 S          62.8667   82.3592   14.3353 S.O2    1  UNL1        0.0410
     29 O          61.6838   83.2650   14.1618 O.2     1  UNL1       -0.1575
     30 O          64.0496   81.4533   14.5087 O.2     1  UNL1       -0.1575
     31 C          62.5665   81.7142   13.0147 C.3     1  UNL1        0.1776
     32 C          62.5042   82.5483   11.7696 C.3     1  UNL1        0.1302
     33 C          63.7105   82.6682   10.8861 C.3     1  UNL1        0.3995
     34 F          64.9168   82.7882   10.0027 F       1  UNL1       -0.1700
     35 F          63.3305   81.3929   10.1941 F       1  UNL1       -0.1700
     36 F          64.0905   83.9436   11.5781 F       1  UNL1       -0.1700
@<TRIPOS>BOND
     1    14    13    1
     2    14    15    1
     3    15    16    1
     4    16     3    1
     5     3     4   ar
     6     4     5   ar
     7     5     6   ar
     8     6     7   ar
     9     7     8   ar
    10     8     1    1
    11    20     1    1
    12    20    21    1
    13    21    22    1
    14    22    23    1
    15    23    26    1
    16    26    28    1
    17    28    29    2
    18    28    30    2
    19    28    31    1
    20    31    32    1
    21    32    33    1
    22    33    34    1
    23    33    35    1
    24    33    36    1
    25    23    24    1
    26    24    25    1
    27     8     9   ar
    28     9    10   ar
    29    10    11   ar
    30    16    17    1
    31    17    18    1
    32    18    19    1
    33    19    14    1
    34    11     3   ar
    35    11     6    1
    36    25    20    1
    37     7    12    1
    38     1     2    1
    39    26    27    1
@<TRIPOS>MOLECULE
*****
 36 39 0 0 0
SMALL
GASTEIGER

@<TRIPOS>ATOM
      1 N          63.1685   89.8176   16.2451 N.pl3   1  UNL1       -0.3061
      2 H          62.5053   90.2058   16.8605 H       1  UNL1        0.1495
      3 C          66.6906   93.4905   13.1130 C.ar    1  UNL1        0.1580
      4 N          67.4801   94.0795   14.2443 N.ar    1  UNL1       -0.1313
      5 N          66.9916   93.4623   15.5211 N.ar    1  UNL1       -0.1290
      6 C          65.9001   92.4919   15.1791 C.ar    1  UNL1        0.1683
      7 N          65.0516   91.5947   16.0305 N.ar    1  UNL1       -0.3106
      8 C          64.0170   90.7149   15.3936 C.ar    1  UNL1        0.1956
      9 N          63.8310   90.7323   13.9053 N.ar    1  UNL1       -0.2137
     10 C          64.6795   91.6295   13.0539 C.ar    1  UNL1        0.1076
     11 C          65.7140   92.5093   13.6907 C.ar    1  UNL1        0.0882
     12 H          65.1737   91.5832   17.0073 H       1  UNL1        0.1701
     13 C          68.6449   92.3789    8.4285 C.3     1  UNL1        0.0339
     14 C          67.8267   93.2683    9.3170 C.3     1  UNL1        0.1351
     15 C          67.6677   92.9347   10.7708 C.3     1  UNL1        0.1217
     16 N          66.8496   93.8241   11.6593 N.pl3   1  UNL1       -0.2867
     17 C          66.1903   95.0472   11.0939 C.3     1  UNL1        0.1243
     18 C          66.3493   95.3808    9.6402 C.3     1  UNL1        0.1635
     19 O          67.1675   94.4914    8.7517 O.3     1  UNL1       -0.3527
     20 C          63.3304   88.3289   16.1589 C.3     1  UNL1        0.0718
     21 C          64.1037   87.7230   15.0253 C.3     1  UNL1        0.0210
     22 C          64.2657   86.2342   14.9391 C.3     1  UNL1        0.0191
     23 C          63.6543   85.3514   15.9865 C.3     1  UNL1        0.0752
     24 C          62.8810   85.9573   17.1200 C.3     1  UNL1        0.0191
     25 C          62.7191   87.4461   17.2062 C.3     1  UNL1        0.0210
     26 N          63.8162   83.8627   15.9003 N.3     1  UNL1       -0.1847
     27 H          63.2370   83.4603   16.6372 H       1  UNL1        0.1484
     28 S          63.4658   83.1423   14.6321 S.O2    1  UNL1        0.0410
     29 O          64.9191   83.0790   14.2664 O.2     1  UNL1       -0.1575
     30 O          62.0125   83.2056   14.9978 O.2     1  UNL1       -0.1575
     31 C          63.1153   82.4220   13.3639 C.3     1  UNL1        0.1776
     32 C          64.1845   82.1073   12.3601 C.3     1  UNL1        0.1302
     33 C          64.0336   82.5581   10.9374 C.3     1  UNL1        0.3995
     34 F          63.8828   83.0090    9.5147 F       1  UNL1       -0.1700
     35 F          63.0536   81.4499   10.6901 F       1  UNL1       -0.1700
     36 F          65.0137   83.6663   11.1847 F       1  UNL1       -0.1700
@<TRIPOS>BOND
     1    14    13    1
     2    14    15    1
     3    15    16    1
     4    16     3    1
     5     3     4   ar
     6     4     5   ar
     7     5     6   ar
     8     6     7   ar
     9     7     8   ar
    10     8     1    1
    11    20     1    1
    12    20    21    1
    13    21    22    1
    14    22    23    1
    15    23    26    1
    16    26    28    1
    17    28    29    2
    18    28    30    2
    19    28    31    1
    20    31    32    1
    21    32    33    1
    22    33    34    1
    23    33    35    1
    24    33    36    1
    25    23    24    1
    26    24    25    1
    27     8     9   ar
    28     9    10   ar
    29    10    11   ar
    30    16    17    1
    31    17    18    1
    32    18    19    1
    33    19    14    1
    34    11     3   ar
    35    11     6    1
    36    25    20    1
    37     7    12    1
    38     1     2    1
    39    26    27    1
@<TRIPOS>MOLECULE
*****
 36 39 0 0 0
SMALL
GASTEIGER

@<TRIPOS>ATOM
      1 N          62.4652   89.7933   11.3463 N.pl3   1  UNL1       -0.3061
      2 H          61.6309   90.0050   10.8684 H       1  UNL1        0.1495
      3 C          63.5548   84.4102   13.7001 C.ar    1  UNL1        0.1580
      4 N          64.4664   84.8230   14.8175 N.ar    1  UNL1       -0.1313
      5 N          64.6219   86.3139   14.7619 N.ar    1  UNL1       -0.1290
      6 C          63.8064   86.8225   13.6103 C.ar    1  UNL1        0.1683
      7 N          63.5792   88.2049   13.0744 N.ar    1  UNL1       -0.3106
      8 C          62.6924   88.4108   11.8823 C.ar    1  UNL1        0.1956
      9 N          62.0329   87.2342   11.2261 N.ar    1  UNL1       -0.2137
     10 C          62.2601   85.8518   11.7619 C.ar    1  UNL1        0.1076
     11 C          63.1469   85.6459   12.9541 C.ar    1  UNL1        0.0882
     12 H          64.0121   88.9771   13.5051 H       1  UNL1        0.1701
     13 C          63.1413   80.4841   10.3216 C.3     1  UNL1        0.0339
     14 C          62.9195   81.0447   11.6951 C.3     1  UNL1        0.1351
     15 C          63.3480   82.4471   12.0109 C.3     1  UNL1        0.1217
     16 N          63.1262   83.0078   13.3843 N.pl3   1  UNL1       -0.2867
     17 C          62.4758   82.1661   14.4420 C.3     1  UNL1        0.1243
     18 C          62.0472   80.7638   14.1262 C.3     1  UNL1        0.1635
     19 O          62.2691   80.2031   12.7527 O.3     1  UNL1       -0.3527
     20 C          63.5091   90.8531   11.5386 C.3     1  UNL1        0.0718
     21 C          64.1672   91.0238   12.8757 C.3     1  UNL1        0.0210
     22 C          65.2110   92.0837   13.0680 C.3     1  UNL1        0.0191
     23 C          65.5968   92.9729   11.9231 C.3     1  UNL1        0.0752
     24 C          64.9387   92.8022   10.5861 C.3     1  UNL1        0.0191
     25 C          63.8949   91.7423   10.3938 C.3     1  UNL1        0.0210
     26 N          66.6407   94.0328   12.1154 N.3     1  UNL1       -0.1847
     27 H          67.5463   93.5653   12.0732 H       1  UNL1        0.1484
     28 S          66.7101   95.1970   11.1721 S.O2    1  UNL1        0.0410
     29 O          65.8189   95.9882   12.0829 O.2     1  UNL1       -0.1575
     30 O          67.6013   94.4058   10.2612 O.2     1  UNL1       -0.1575
     31 C          66.7795   96.3612   10.2288 C.3     1  UNL1        0.1776
     32 C          65.6072   96.6863    9.3512 C.3     1  UNL1        0.1302
     33 C          65.7734   96.7231    7.8609 C.3     1  UNL1        0.3995
     34 F          65.9395   96.7598    6.3706 F       1  UNL1       -0.1700
     35 F          64.2880   96.8545    7.6985 F       1  UNL1       -0.1700
     36 F          67.2587   96.5916    8.0233 F       1  UNL1       -0.1700
@<TRIPOS>BOND
     1    14    13    1
     2    14    15    1
     3    15    16    1
     4    16     3    1
     5     3     4   ar
     6     4     5   ar
     7     5     6   ar
     8     6     7   ar
     9     7     8   ar
    10     8     1    1
    11    20     1    1
    12    20    21    1
    13    21    22    1
    14    22    23    1
    15    23    26    1
    16    26    28    1
    17    28    29    2
    18    28    30    2
    19    28    31    1
    20    31    32    1
    21    32    33    1
    22    33    34    1
    23    33    35    1
    24    33    36    1
    25    23    24    1
    26    24    25    1
    27     8     9   ar
    28     9    10   ar
    29    10    11   ar
    30    16    17    1
    31    17    18    1
    32    18    19    1
    33    19    14    1
    34    11     3   ar
    35    11     6    1
    36    25    20    1
    37     7    12    1
    38     1     2    1
    39    26    27    1
@<TRIPOS>MOLECULE
*****
 36 39 0 0 0
SMALL
GASTEIGER

@<TRIPOS>ATOM
      1 N          64.0365   90.6148   15.8973 N.pl3   1  UNL1       -0.3061
      2 H          63.6855   91.0705   16.6962 H       1  UNL1        0.1495
      3 C          63.0566   84.7354   15.4762 C.ar    1  UNL1        0.1580
      4 N          62.3687   84.5175   16.7912 N.ar    1  UNL1       -0.1313
      5 N          62.2894   85.8386   17.4972 N.ar    1  UNL1       -0.1290
      6 C          62.9284   86.8729   16.6186 C.ar    1  UNL1        0.1683
      7 N          63.1397   88.3474   16.7945 N.ar    1  UNL1       -0.3106
      8 C          63.8251   89.1401   15.7213 C.ar    1  UNL1        0.1956
      9 N          64.2993   88.4583   14.4722 N.ar    1  UNL1       -0.2137
     10 C          64.0880   86.9837   14.2963 C.ar    1  UNL1        0.1076
     11 C          63.4025   86.1910   15.3695 C.ar    1  UNL1        0.0882
     12 H          62.8285   88.7949   17.6143 H       1  UNL1        0.1701
     13 C          62.0807   80.0657   13.4166 C.3     1  UNL1        0.0339
     14 C          62.8596   81.3476   13.4184 C.3     1  UNL1        0.1351
     15 C          62.5687   82.4006   14.4463 C.3     1  UNL1        0.1217
     16 N          63.3476   83.6824   14.4483 N.pl3   1  UNL1       -0.2867
     17 C          64.4176   83.9113   13.4222 C.3     1  UNL1        0.1243
     18 C          64.7086   82.8583   12.3942 C.3     1  UNL1        0.1635
     19 O          63.9296   81.5765   12.3924 O.3     1  UNL1       -0.3527
     20 C          64.7826   91.3950   14.8558 C.3     1  UNL1        0.0718
     21 C          66.0037   92.1783   15.2372 C.3     1  UNL1        0.0210
     22 C          66.7498   92.9585   14.1957 C.3     1  UNL1        0.0191
     23 C          66.2747   92.9554   12.7729 C.3     1  UNL1        0.0752
     24 C          65.0536   92.1721   12.3916 C.3     1  UNL1        0.0191
     25 C          64.3076   91.3919   13.4330 C.3     1  UNL1        0.0210
     26 N          67.0208   93.7356   11.7314 N.3     1  UNL1       -0.1847
     27 H          67.2735   93.0768   10.9948 H       1  UNL1        0.1484
     28 S          66.3665   94.9063   11.0595 S.O2    1  UNL1        0.0410
     29 O          66.2019   95.5783   12.3904 O.2     1  UNL1       -0.1575
     30 O          66.5310   94.2343    9.7286 O.2     1  UNL1       -0.1575
     31 C          65.7122   96.0769   10.3876 C.3     1  UNL1        0.1776
     32 C          66.4576   96.8559    9.3447 C.3     1  UNL1        0.1302
     33 C          66.0369   96.7778    7.9069 C.3     1  UNL1        0.3995
     34 F          65.6164   96.6997    6.4693 F       1  UNL1       -0.1700
     35 F          64.5981   96.8551    8.3236 F       1  UNL1       -0.1700
     36 F          67.4758   96.7004    7.4903 F       1  UNL1       -0.1700
@<TRIPOS>BOND
     1    14    13    1
     2    14    15    1
     3    15    16    1
     4    16     3    1
     5     3     4   ar
     6     4     5   ar
     7     5     6   ar
     8     6     7   ar
     9     7     8   ar
    10     8     1    1
    11    20     1    1
    12    20    21    1
    13    21    22    1
    14    22    23    1
    15    23    26    1
    16    26    28    1
    17    28    29    2
    18    28    30    2
    19    28    31    1
    20    31    32    1
    21    32    33    1
    22    33    34    1
    23    33    35    1
    24    33    36    1
    25    23    24    1
    26    24    25    1
    27     8     9   ar
    28     9    10   ar
    29    10    11   ar
    30    16    17    1
    31    17    18    1
    32    18    19    1
    33    19    14    1
    34    11     3   ar
    35    11     6    1
    36    25    20    1
    37     7    12    1
    38     1     2    1
    39    26    27    1
@<TRIPOS>MOLECULE
*****
 36 39 0 0 0
SMALL
GASTEIGER

@<TRIPOS>ATOM
      1 N          61.8120   88.2536   10.1995 N.pl3   1  UNL1       -0.3061
      2 H          60.9943   88.5448    9.7350 H       1  UNL1        0.1495
      3 C          65.2455   92.4210   12.7585 C.ar    1  UNL1        0.1580
      4 N          65.4278   93.3308   11.5799 N.ar    1  UNL1       -0.1313
      5 N          64.6816   92.7414   10.4198 N.ar    1  UNL1       -0.1290
      6 C          64.0382   91.4675   10.8814 C.ar    1  UNL1        0.1683
      7 N          63.1800   90.4622   10.1723 N.ar    1  UNL1       -0.3106
      8 C          62.6703   89.2589   10.9086 C.ar    1  UNL1        0.1956
      9 N          63.0188   89.0609   12.3541 N.ar    1  UNL1       -0.2137
     10 C          63.8770   90.0661   13.0632 C.ar    1  UNL1        0.1076
     11 C          64.3867   91.2695   12.3269 C.ar    1  UNL1        0.0882
     12 H          62.9512   90.5922    9.2236 H       1  UNL1        0.1701
     13 C          69.1297   94.0284   15.8130 C.3     1  UNL1        0.0339
     14 C          67.7631   93.4303   15.6556 C.3     1  UNL1        0.1351
     15 C          67.1876   93.2247   14.2858 C.3     1  UNL1        0.1217
     16 N          65.8211   92.6267   14.1284 N.pl3   1  UNL1       -0.2867
     17 C          65.0299   92.2343   15.3410 C.3     1  UNL1        0.1243
     18 C          65.6054   92.4399   16.7108 C.3     1  UNL1        0.1635
     19 O          66.9720   93.0380   16.8682 O.3     1  UNL1       -0.3527
     20 C          62.1996   86.8045   10.1983 C.3     1  UNL1        0.0718
     21 C          62.0125   85.9771   11.4354 C.3     1  UNL1        0.0210
     22 C          62.4001   84.5280   11.4342 C.3     1  UNL1        0.0191
     23 C          62.9748   83.9064   10.1959 C.3     1  UNL1        0.0752
     24 C          63.1619   84.7339    8.9588 C.3     1  UNL1        0.0191
     25 C          62.7743   86.1829    8.9601 C.3     1  UNL1        0.0210
     26 N          63.3624   82.4574   10.1946 N.3     1  UNL1       -0.1847
     27 H          64.1675   82.3684    9.5747 H       1  UNL1        0.1484
     28 S          63.7291   81.7780   11.4808 S.O2    1  UNL1        0.0410
     29 O          64.9611   82.6280   11.5786 O.2     1  UNL1       -0.1575
     30 O          62.4971   80.9280   11.3830 O.2     1  UNL1       -0.1575
     31 C          64.0958   81.0986   12.7668 C.3     1  UNL1        0.1776
     32 C          63.1020   81.0294   13.8882 C.3     1  UNL1        0.1302
     33 C          62.4887   82.2884   14.4257 C.3     1  UNL1        0.3995
     34 F          61.8755   83.5474   14.9631 F       1  UNL1       -0.1700
     35 F          61.1217   81.6942   14.2578 F       1  UNL1       -0.1700
     36 F          63.8557   82.8826   14.5936 F       1  UNL1       -0.1700
@<TRIPOS>BOND
     1    14    13    1
     2    14    15    1
     3    15    16    1
     4    16     3    1
     5     3     4   ar
     6     4     5   ar
     7     5     6   ar
     8     6     7   ar
     9     7     8   ar
    10     8     1    1
    11    20     1    1
    12    20    21    1
    13    21    22    1
    14    22    23    1
    15    23    26    1
    16    26    28    1
    17    28    29    2
    18    28    30    2
    19    28    31    1
    20    31    32    1
    21    32    33    1
    22    33    34    1
    23    33    35    1
    24    33    36    1
    25    23    24    1
    26    24    25    1
    27     8     9   ar
    28     9    10   ar
    29    10    11   ar
    30    16    17    1
    31    17    18    1
    32    18    19    1
    33    19    14    1
    34    11     3   ar
    35    11     6    1
    36    25    20    1
    37     7    12    1
    38     1     2    1
    39    26    27    1
@<TRIPOS>MOLECULE
*****
 36 39 0 0 0
SMALL
GASTEIGER

@<TRIPOS>ATOM
      1 N          58.4981   89.3349    6.6686 N.pl3   1  UNL1       -0.3061
      2 H          57.5318   89.1466    6.6632 H       1  UNL1        0.1495
      3 C          62.1143   86.7861   10.6851 C.ar    1  UNL1        0.1580
      4 N          62.4445   87.9977   11.5055 N.ar    1  UNL1       -0.1313
      5 N          61.7221   89.1705   10.9116 N.ar    1  UNL1       -0.1290
      6 C          60.9455   88.6838    9.7242 C.ar    1  UNL1        0.1683
      7 N          60.0489   89.3920    8.7524 N.ar    1  UNL1       -0.3106
      8 C          59.3947   88.6266    7.6405 C.ar    1  UNL1        0.1956
      9 N          59.6371   87.1530    7.5006 N.ar    1  UNL1       -0.2137
     10 C          60.5337   86.4447    8.4724 C.ar    1  UNL1        0.1076
     11 C          61.1878   87.2101    9.5842 C.ar    1  UNL1        0.0882
     12 H          59.8898   90.3592    8.8442 H       1  UNL1        0.1701
     13 C          62.7455   82.7057   13.8397 C.3     1  UNL1        0.0339
     14 C          62.9371   83.3545   12.5009 C.3     1  UNL1        0.1351
     15 C          62.4299   84.7459   12.2624 C.3     1  UNL1        0.1217
     16 N          62.6215   85.3948   10.9237 N.pl3   1  UNL1       -0.2867
     17 C          63.3203   84.6522    9.8234 C.3     1  UNL1        0.1243
     18 C          63.8275   83.2609   10.0620 C.3     1  UNL1        0.1635
     19 O          63.6359   82.6120   11.4008 O.3     1  UNL1       -0.3527
     20 C          59.0738   90.3300    5.7051 C.3     1  UNL1        0.0718
     21 C          58.1793   91.3331    5.0390 C.3     1  UNL1        0.0210
     22 C          58.7550   92.3282    4.0755 C.3     1  UNL1        0.0191
     23 C          60.2253   92.3202    3.7781 C.3     1  UNL1        0.0752
     24 C          61.1197   91.3171    4.4443 C.3     1  UNL1        0.0191
     25 C          60.5440   90.3220    5.4078 C.3     1  UNL1        0.0210
     26 N          60.8010   93.3153    2.8146 N.3     1  UNL1       -0.1847
     27 H          61.6948   92.9376    2.5002 H       1  UNL1        0.1484
     28 S          60.0346   93.6965    1.5828 S.O2    1  UNL1        0.0410
     29 O          60.2695   92.3288    1.0134 O.2     1  UNL1       -0.1575
     30 O          59.7997   95.0641    2.1522 O.2     1  UNL1       -0.1575
     31 C          59.2683   94.0777    0.3510 C.3     1  UNL1        0.1776
     32 C          58.4982   93.0362   -0.4055 C.3     1  UNL1        0.1302
     33 C          57.1130   93.3368   -0.8963 C.3     1  UNL1        0.3995
     34 F          55.7278   93.6373   -1.3871 F       1  UNL1       -0.1700
     35 F          56.8735   91.8726   -1.1170 F       1  UNL1       -0.1700
     36 F          57.3525   94.8009   -0.6756 F       1  UNL1       -0.1700
@<TRIPOS>BOND
     1    14    13    1
     2    14    15    1
     3    15    16    1
     4    16     3    1
     5     3     4   ar
     6     4     5   ar
     7     5     6   ar
     8     6     7   ar
     9     7     8   ar
    10     8     1    1
    11    20     1    1
    12    20    21    1
    13    21    22    1
    14    22    23    1
    15    23    26    1
    16    26    28    1
    17    28    29    2
    18    28    30    2
    19    28    31    1
    20    31    32    1
    21    32    33    1
    22    33    34    1
    23    33    35    1
    24    33    36    1
    25    23    24    1
    26    24    25    1
    27     8     9   ar
    28     9    10   ar
    29    10    11   ar
    30    16    17    1
    31    17    18    1
    32    18    19    1
    33    19    14    1
    34    11     3   ar
    35    11     6    1
    36    25    20    1
    37     7    12    1
    38     1     2    1
    39    26    27    1
@<TRIPOS>MOLECULE
*****
 36 39 0 0 0
SMALL
GASTEIGER

@<TRIPOS>ATOM
      1 N          61.9311   88.7017   10.7482 N.pl3   1  UNL1       -0.3061
      2 H          61.1603   88.8256   10.1485 H       1  UNL1        0.1495
      3 C          63.3400   83.4192   13.1597 C.ar    1  UNL1        0.1580
      4 N          64.1707   83.9014   14.3118 N.ar    1  UNL1       -0.1313
      5 N          64.2118   85.3999   14.2583 N.ar    1  UNL1       -0.1290
      6 C          63.4066   85.8438   13.0732 C.ar    1  UNL1        0.1683
      7 N          63.0944   87.2044   12.5245 N.ar    1  UNL1       -0.3106
      8 C          62.2434   87.3409   11.2969 C.ar    1  UNL1        0.1956
      9 N          61.7045   86.1167   10.6180 N.ar    1  UNL1       -0.2137
     10 C          62.0167   84.7561   11.1666 C.ar    1  UNL1        0.1076
     11 C          62.8677   84.6196   12.3942 C.ar    1  UNL1        0.0882
     12 H          63.4480   88.0079   12.9702 H       1  UNL1        0.1701
     13 C          62.9518   79.5875    9.6715 C.3     1  UNL1        0.0339
     14 C          62.8409   80.0719   11.0868 C.3     1  UNL1        0.1351
     15 C          63.1459   81.5033   11.4157 C.3     1  UNL1        0.1217
     16 N          63.0350   81.9878   12.8309 N.pl3   1  UNL1       -0.2867
     17 C          62.6192   81.0408   13.9174 C.3     1  UNL1        0.1243
     18 C          62.3142   79.6094   13.5885 C.3     1  UNL1        0.1635
     19 O          62.4251   79.1250   12.1732 O.3     1  UNL1       -0.3527
     20 C          62.7934   89.8735   11.1134 C.3     1  UNL1        0.0718
     21 C          63.2935   90.0275   12.5192 C.3     1  UNL1        0.0210
     22 C          64.1557   91.1994   12.8843 C.3     1  UNL1        0.0191
     23 C          64.5179   92.2172   11.8436 C.3     1  UNL1        0.0752
     24 C          64.0178   92.0631   10.4379 C.3     1  UNL1        0.0191
     25 C          63.1555   90.8913   10.0727 C.3     1  UNL1        0.0210
     26 N          65.3801   93.3890   12.2087 N.3     1  UNL1       -0.1847
     27 H          64.7948   94.0296   12.7448 H       1  UNL1        0.1484
     28 S          66.6337   93.1785   13.0051 S.O2    1  UNL1        0.0410
     29 O          67.2841   92.5411   11.8132 O.2     1  UNL1       -0.1575
     30 O          65.9834   93.8158   14.1971 O.2     1  UNL1       -0.1575
     31 C          67.8872   92.9680   13.8016 C.3     1  UNL1        0.1776
     32 C          67.9571   93.4313   15.2265 C.3     1  UNL1        0.1302
     33 C          68.8777   92.7473   16.1933 C.3     1  UNL1        0.3995
     34 F          69.7982   92.0632   17.1601 F       1  UNL1       -0.1700
     35 F          69.5923   94.0445   16.4307 F       1  UNL1       -0.1700
     36 F          68.1631   91.4500   15.9559 F       1  UNL1       -0.1700
@<TRIPOS>BOND
     1    14    13    1
     2    14    15    1
     3    15    16    1
     4    16     3    1
     5     3     4   ar
     6     4     5   ar
     7     5     6   ar
     8     6     7   ar
     9     7     8   ar
    10     8     1    1
    11    20     1    1
    12    20    21    1
    13    21    22    1
    14    22    23    1
    15    23    26    1
    16    26    28    1
    17    28    29    2
    18    28    30    2
    19    28    31    1
    20    31    32    1
    21    32    33    1
    22    33    34    1
    23    33    35    1
    24    33    36    1
    25    23    24    1
    26    24    25    1
    27     8     9   ar
    28     9    10   ar
    29    10    11   ar
    30    16    17    1
    31    17    18    1
    32    18    19    1
    33    19    14    1
    34    11     3   ar
    35    11     6    1
    36    25    20    1
    37     7    12    1
    38     1     2    1
    39    26    27    1
@<TRIPOS>MOLECULE
*****
 36 39 0 0 0
SMALL
GASTEIGER

@<TRIPOS>ATOM
      1 N          58.6187   89.2572    7.0250 N.pl3   1  UNL1       -0.3061
      2 H          57.6609   89.0657    7.1481 H       1  UNL1        0.1495
      3 C          60.6782   92.9119    2.7698 C.ar    1  UNL1        0.1580
      4 N          62.1330   92.5526    2.8361 N.ar    1  UNL1       -0.1313
      5 N          62.3037   91.5040    3.8950 N.ar    1  UNL1       -0.1290
      6 C          60.9544   91.2154    4.4833 C.ar    1  UNL1        0.1683
      7 N          60.5107   90.2726    5.5623 N.ar    1  UNL1       -0.3106
      8 C          59.0624   90.2000    5.9459 C.ar    1  UNL1        0.1956
      9 N          58.0578   91.0701    5.2505 N.ar    1  UNL1       -0.2137
     10 C          58.5015   92.0128    4.1714 C.ar    1  UNL1        0.1076
     11 C          59.9498   92.0855    3.7878 C.ar    1  UNL1        0.0882
     12 H          61.1701   89.7015    6.0188 H       1  UNL1        0.1701
     13 C          57.6335   94.0255   -1.2909 C.3     1  UNL1        0.0339
     14 C          58.5379   94.4775   -0.1829 C.3     1  UNL1        0.1351
     15 C          59.1559   93.4688    0.7395 C.3     1  UNL1        0.1217
     16 N          60.0603   93.9206    1.8475 N.pl3   1  UNL1       -0.2867
     17 C          60.3469   95.3813    2.0331 C.3     1  UNL1        0.1243
     18 C          59.7289   96.3900    1.1108 C.3     1  UNL1        0.1635
     19 O          58.8245   95.9381    0.0028 O.3     1  UNL1       -0.3527
     20 C          59.6344   88.6063    7.9165 C.3     1  UNL1        0.0718
     21 C          60.3947   89.4298    8.9134 C.3     1  UNL1        0.0210
     22 C          61.4104   88.7789    9.8049 C.3     1  UNL1        0.0191
     23 C          61.6656   87.3045    9.6995 C.3     1  UNL1        0.0752
     24 C          60.9053   86.4811    8.7026 C.3     1  UNL1        0.0191
     25 C          59.8897   87.1320    7.8111 C.3     1  UNL1        0.0210
     26 N          62.6813   86.6536   10.5910 N.3     1  UNL1       -0.1847
     27 H          62.7754   87.2489   11.4139 H       1  UNL1        0.1484
     28 S          62.4558   85.2571   11.0903 S.O2    1  UNL1        0.0410
     29 O          63.2971   84.7208    9.9703 O.2     1  UNL1       -0.1575
     30 O          61.6145   85.7935   12.2103 O.2     1  UNL1       -0.1575
     31 C          62.2302   83.8608   11.5896 C.3     1  UNL1        0.1776
     32 C          63.3050   82.8260   11.4342 C.3     1  UNL1        0.1302
     33 C          63.0049   81.3843   11.7196 C.3     1  UNL1        0.3995
     34 F          62.7049   79.9426   12.0051 F       1  UNL1       -0.1700
     35 F          63.1272   81.0695   10.2582 F       1  UNL1       -0.1700
     36 F          62.8826   81.6991   13.1811 F       1  UNL1       -0.1700
@<TRIPOS>BOND
     1    14    13    1
     2    14    15    1
     3    15    16    1
     4    16     3    1
     5     3     4   ar
     6     4     5   ar
     7     5     6   ar
     8     6     7   ar
     9     7     8   ar
    10     8     1    1
    11    20     1    1
    12    20    21    1
    13    21    22    1
    14    22    23    1
    15    23    26    1
    16    26    28    1
    17    28    29    2
    18    28    30    2
    19    28    31    1
    20    31    32    1
    21    32    33    1
    22    33    34    1
    23    33    35    1
    24    33    36    1
    25    23    24    1
    26    24    25    1
    27     8     9   ar
    28     9    10   ar
    29    10    11   ar
    30    16    17    1
    31    17    18    1
    32    18    19    1
    33    19    14    1
    34    11     3   ar
    35    11     6    1
    36    25    20    1
    37     7    12    1
    38     1     2    1
    39    26    27    1
@<TRIPOS>MOLECULE
*****
 36 39 0 0 0
SMALL
GASTEIGER

@<TRIPOS>ATOM
      1 N          58.3139   88.9146    6.8720 N.pl3   1  UNL1       -0.3061
      2 H          57.3753   88.6186    6.8441 H       1  UNL1        0.1495
      3 C          62.1900   86.6034   10.7884 C.ar    1  UNL1        0.1580
      4 N          62.4981   87.8439   11.5734 N.ar    1  UNL1       -0.1313
      5 N          61.7027   88.9726   10.9874 N.ar    1  UNL1       -0.1290
      6 C          60.9031   88.4296    9.8403 C.ar    1  UNL1        0.1683
      7 N          59.9396   89.0794    8.8919 N.ar    1  UNL1       -0.3106
      8 C          59.2774   88.2649    7.8205 C.ar    1  UNL1        0.1956
      9 N          59.5786   86.8006    7.6975 N.ar    1  UNL1       -0.2137
     10 C          60.5421   86.1508    8.6459 C.ar    1  UNL1        0.1076
     11 C          61.2043   86.9653    9.7173 C.ar    1  UNL1        0.0882
     12 H          59.7419   90.0404    8.9726 H       1  UNL1        0.1701
     13 C          63.2320   82.6692   14.0190 C.3     1  UNL1        0.0339
     14 C          63.2876   83.2730   12.6470 C.3     1  UNL1        0.1351
     15 C          62.7110   84.6363   12.4036 C.3     1  UNL1        0.1217
     16 N          62.7666   85.2401   11.0318 N.pl3   1  UNL1       -0.2867
     17 C          63.3987   84.4807    9.9031 C.3     1  UNL1        0.1243
     18 C          63.9752   83.1174   10.1464 C.3     1  UNL1        0.1635
     19 O          63.9196   82.5136   11.5184 O.3     1  UNL1       -0.3527
     20 C          58.7804   90.0153    5.9660 C.3     1  UNL1        0.0718
     21 C          57.7916   90.9921    5.4018 C.3     1  UNL1        0.0210
     22 C          58.2581   92.0928    4.4958 C.3     1  UNL1        0.0191
     23 C          59.7134   92.2168    4.1541 C.3     1  UNL1        0.0752
     24 C          60.7021   91.2401    4.7183 C.3     1  UNL1        0.0191
     25 C          60.2356   90.1394    5.6243 C.3     1  UNL1        0.0210
     26 N          60.1799   93.3176    3.2482 N.3     1  UNL1       -0.1847
     27 H          60.9525   93.7832    3.7243 H       1  UNL1        0.1484
     28 S          60.6555   92.9972    1.8620 S.O2    1  UNL1        0.0410
     29 O          59.2398   93.0338    1.3678 O.2     1  UNL1       -0.1575
     30 O          62.0712   92.9606    2.3563 O.2     1  UNL1       -0.1575
     31 C          61.1311   92.6769    0.4760 C.3     1  UNL1        0.1776
     32 C          61.6287   93.7735   -0.4183 C.3     1  UNL1        0.1302
     33 C          62.6464   93.4729   -1.4786 C.3     1  UNL1        0.3995
     34 F          63.6640   93.1724   -2.5387 F       1  UNL1       -0.1700
     35 F          61.5619   93.4554   -2.5146 F       1  UNL1       -0.1700
     36 F          63.7309   93.4904   -0.4425 F       1  UNL1       -0.1700
@<TRIPOS>BOND
     1    14    13    1
     2    14    15    1
     3    15    16    1
     4    16     3    1
     5     3     4   ar
     6     4     5   ar
     7     5     6   ar
     8     6     7   ar
     9     7     8   ar
    10     8     1    1
    11    20     1    1
    12    20    21    1
    13    21    22    1
    14    22    23    1
    15    23    26    1
    16    26    28    1
    17    28    29    2
    18    28    30    2
    19    28    31    1
    20    31    32    1
    21    32    33    1
    22    33    34    1
    23    33    35    1
    24    33    36    1
    25    23    24    1
    26    24    25    1
    27     8     9   ar
    28     9    10   ar
    29    10    11   ar
    30    16    17    1
    31    17    18    1
    32    18    19    1
    33    19    14    1
    34    11     3   ar
    35    11     6    1
    36    25    20    1
    37     7    12    1
    38     1     2    1
    39    26    27    1
