@<TRIPOS>MOLECULE
*****
 31 33 0 0 0
SMALL
GASTEIGER

@<TRIPOS>ATOM
      1 N          63.0572   90.4974   11.7734 N.am    1  UNL1       -0.2438
      2 C          63.5318   91.2297   10.5535 C.3     1  UNL1        0.1009
      3 C          64.6425   92.2316   10.6649 C.3     1  UNL1        0.0662
      4 C          65.2786   92.5013   11.9963 C.3     1  UNL1        0.1600
      5 O          64.8040   91.7689   13.2163 O.3     1  UNL1       -0.4374
      6 C          63.6933   90.7670   13.1049 C.2     1  UNL1        0.4051
      7 O          63.2186   90.0347   14.3249 O.2     1  UNL1       -0.2262
      8 C          66.0696   93.4405   11.1347 C.ar    1  UNL1        0.0138
      9 C          66.9120   92.9028   10.0162 C.ar    1  UNL1       -0.0010
     10 C          67.7030   93.8421    9.1547 C.ar    1  UNL1       -0.0002
     11 C          67.6514   95.3190    9.4117 C.ar    1  UNL1       -0.0000
     12 C          66.8089   95.8567   10.5303 C.ar    1  UNL1       -0.0002
     13 C          66.0180   94.9174   11.3918 C.ar    1  UNL1       -0.0010
     14 C          60.5562   89.8666   12.0856 C.3     1  UNL1        0.0265
     15 C          61.9465   89.4954   11.6620 C.3     1  UNL1        0.1011
     16 C          62.2260   88.1222   11.1270 C.ar    1  UNL1       -0.0040
     17 C          62.6177   87.0178   12.0634 C.ar    1  UNL1        0.0004
     18 C          62.8973   85.6447   11.5283 C.ar    1  UNL1        0.0368
     19 C          62.7851   85.3759   10.0568 C.ar    1  UNL1        0.1443
     20 C          62.3933   86.4803    9.1204 C.ar    1  UNL1        0.0368
     21 C          62.1138   87.8534    9.6555 C.ar    1  UNL1        0.0004
     22 O          63.0646   84.0027    9.5218 O.3     1  UNL1       -0.4236
     23 C          63.7965   83.0030   10.3673 C.3     1  UNL1        0.5087
     24 F          63.2432   81.6196   10.5412 F       1  UNL1       -0.1550
     25 F          65.0817   83.3866   11.0389 F       1  UNL1       -0.1550
     26 C          66.1894   93.0971   13.0285 C.3     1  UNL1        0.0714
     27 C          66.9155   92.2060   13.9921 C.3     1  UNL1        0.0922
     28 C          66.0736   92.7345   15.1154 C.3     1  UNL1        0.0294
     29 C          67.7575   91.6775   12.8688 C.3     1  UNL1        0.0294
     30 O          67.6417   91.3148   14.9557 O.3     1  UNL1       -0.3866
     31 H          67.2848   91.4450   15.8482 H       1  UNL1        0.2102
@<TRIPOS>BOND
     1    15    14    1
     2    15    16    1
     3    16    17   ar
     4    17    18   ar
     5    18    19   ar
     6    19    22    1
     7    22    23    1
     8    23    24    1
     9    23    25    1
    10    19    20   ar
    11    20    21   ar
    12    15     1    1
    13     1     2    1
    14     2     3    1
    15     3     4    1
    16     4    26    1
    17    26    27    1
    18    27    28    1
    19    27    29    1
    20    27    30    1
    21     4     8    1
    22     8     9   ar
    23     9    10   ar
    24    10    11   ar
    25    11    12   ar
    26    12    13   ar
    27     4     5    1
    28     5     6    1
    29     6     7    2
    30    21    16   ar
    31     6     1   am
    32    13     8   ar
    33    30    31    1
@<TRIPOS>MOLECULE
*****
 31 33 0 0 0
SMALL
GASTEIGER

@<TRIPOS>ATOM
      1 N          63.2367   90.3185   11.9530 N.am    1  UNL1       -0.2438
      2 C          63.8804   90.1299   13.2946 C.3     1  UNL1        0.1009
      3 C          65.0557   90.9747   13.6880 C.3     1  UNL1        0.0662
      4 C          65.5874   92.0082   12.7397 C.3     1  UNL1        0.1600
      5 O          64.9437   92.1968   11.3980 O.3     1  UNL1       -0.4374
      6 C          63.7683   91.3520   11.0046 C.2     1  UNL1        0.4051
      7 O          63.1246   91.5406    9.6630 O.2     1  UNL1       -0.2262
      8 C          66.5294   92.2019   13.8909 C.ar    1  UNL1        0.0138
      9 C          65.9998   92.6162   15.2318 C.ar    1  UNL1       -0.0010
     10 C          66.9418   92.8098   16.3830 C.ar    1  UNL1       -0.0002
     11 C          68.4133   92.5892   16.1932 C.ar    1  UNL1       -0.0000
     12 C          68.9429   92.1749   14.8523 C.ar    1  UNL1       -0.0002
     13 C          68.0009   91.9812   13.7011 C.ar    1  UNL1       -0.0010
     14 C          60.6701   90.0214   11.6798 C.3     1  UNL1        0.0265
     15 C          62.0613   89.4736   11.5596 C.3     1  UNL1        0.1011
     16 C          62.2772   88.0808   11.0461 C.ar    1  UNL1       -0.0040
     17 C          62.1624   87.7967    9.5777 C.ar    1  UNL1        0.0004
     18 C          62.3782   86.4040    9.0642 C.ar    1  UNL1        0.0368
     19 C          62.7089   85.2954   10.0191 C.ar    1  UNL1        0.1443
     20 C          62.8237   85.5796   11.4874 C.ar    1  UNL1        0.0368
     21 C          62.6078   86.9723   12.0009 C.ar    1  UNL1        0.0004
     22 O          62.9247   83.9027    9.5055 O.3     1  UNL1       -0.4236
     23 C          63.7571   82.9339   10.2920 C.3     1  UNL1        0.5087
     24 F          63.2671   81.5341   10.5168 F       1  UNL1       -0.1550
     25 F          65.0796   83.3648   10.8536 F       1  UNL1       -0.1550
     26 C          66.4462   93.1090   12.1912 C.3     1  UNL1        0.0714
     27 C          66.3985   93.4396   10.7289 C.3     1  UNL1        0.0922
     28 C          65.5587   94.6457   11.0290 C.3     1  UNL1        0.0294
     29 C          67.2382   92.2335   10.4288 C.3     1  UNL1        0.0294
     30 O          66.3507   93.7703    9.2666 O.3     1  UNL1       -0.3866
     31 H          65.8284   94.5769    9.1345 H       1  UNL1        0.2102
@<TRIPOS>BOND
     1    15    14    1
     2    15    16    1
     3    16    17   ar
     4    17    18   ar
     5    18    19   ar
     6    19    22    1
     7    22    23    1
     8    23    24    1
     9    23    25    1
    10    19    20   ar
    11    20    21   ar
    12    15     1    1
    13     1     2    1
    14     2     3    1
    15     3     4    1
    16     4    26    1
    17    26    27    1
    18    27    28    1
    19    27    29    1
    20    27    30    1
    21     4     8    1
    22     8     9   ar
    23     9    10   ar
    24    10    11   ar
    25    11    12   ar
    26    12    13   ar
    27     4     5    1
    28     5     6    1
    29     6     7    2
    30    21    16   ar
    31     6     1   am
    32    13     8   ar
    33    30    31    1
@<TRIPOS>MOLECULE
*****
 31 33 0 0 0
SMALL
GASTEIGER

@<TRIPOS>ATOM
      1 N          62.5148   90.6164   11.2257 N.am    1  UNL1       -0.2438
      2 C          63.0834   91.4228   10.0959 C.3     1  UNL1        0.1009
      3 C          64.4313   92.0656   10.2374 C.3     1  UNL1        0.0662
      4 C          65.2106   91.9020   11.5085 C.3     1  UNL1        0.1600
      5 O          64.6420   91.0955   12.6384 O.3     1  UNL1       -0.4374
      6 C          63.2941   90.4527   12.4969 C.2     1  UNL1        0.4051
      7 O          62.7255   89.6463   13.6266 O.2     1  UNL1       -0.2262
      8 C          66.1649   92.7544   10.7259 C.ar    1  UNL1        0.0138
      9 C          65.7875   94.1587   10.3576 C.ar    1  UNL1       -0.0010
     10 C          66.7419   95.0111    9.5749 C.ar    1  UNL1       -0.0002
     11 C          68.0736   94.4592    9.1606 C.ar    1  UNL1       -0.0000
     12 C          68.4511   93.0550    9.5288 C.ar    1  UNL1       -0.0002
     13 C          67.4967   92.2025   10.3115 C.ar    1  UNL1       -0.0010
     14 C          60.0077   90.4764   11.8925 C.3     1  UNL1        0.0265
     15 C          61.1669   89.9736   11.0842 C.3     1  UNL1        0.1011
     16 C          60.9783   88.8280   10.1344 C.ar    1  UNL1       -0.0040
     17 C          61.6517   87.5144   10.4006 C.ar    1  UNL1        0.0004
     18 C          61.4630   86.3688    9.4508 C.ar    1  UNL1        0.0368
     19 C          60.6010   86.5369    8.2349 C.ar    1  UNL1        0.1443
     20 C          59.9276   87.8505    7.9687 C.ar    1  UNL1        0.0368
     21 C          60.1162   88.9961    8.9184 C.ar    1  UNL1        0.0004
     22 O          60.4123   85.3913    7.2850 O.3     1  UNL1       -0.4236
     23 C          61.6009   84.7716    6.6119 C.3     1  UNL1        0.5087
     24 F          62.9541   84.8540    7.2541 F       1  UNL1       -0.1550
     25 F          61.4365   84.0695    5.2966 F       1  UNL1       -0.1550
     26 C          66.3213   92.0344   12.5079 C.3     1  UNL1        0.0714
     27 C          66.0401   92.5900   13.8726 C.3     1  UNL1        0.0922
     28 C          65.9017   91.1968   14.4112 C.3     1  UNL1        0.0294
     29 C          66.1785   93.9830   13.3339 C.3     1  UNL1        0.0294
     30 O          65.7589   93.1454   15.2372 O.3     1  UNL1       -0.3866
     31 H          65.6140   92.4158   15.8597 H       1  UNL1        0.2102
@<TRIPOS>BOND
     1    15    14    1
     2    15    16    1
     3    16    17   ar
     4    17    18   ar
     5    18    19   ar
     6    19    22    1
     7    22    23    1
     8    23    24    1
     9    23    25    1
    10    19    20   ar
    11    20    21   ar
    12    15     1    1
    13     1     2    1
    14     2     3    1
    15     3     4    1
    16     4    26    1
    17    26    27    1
    18    27    28    1
    19    27    29    1
    20    27    30    1
    21     4     8    1
    22     8     9   ar
    23     9    10   ar
    24    10    11   ar
    25    11    12   ar
    26    12    13   ar
    27     4     5    1
    28     5     6    1
    29     6     7    2
    30    21    16   ar
    31     6     1   am
    32    13     8   ar
    33    30    31    1
@<TRIPOS>MOLECULE
*****
 31 33 0 0 0
SMALL
GASTEIGER

@<TRIPOS>ATOM
      1 N          62.7811   90.7306   11.7570 N.am    1  UNL1       -0.2438
      2 C          63.2524   90.6395   13.1781 C.3     1  UNL1        0.1009
      3 C          64.5808   91.2178   13.5663 C.3     1  UNL1        0.0662
      4 C          65.4381   91.8871   12.5333 C.3     1  UNL1        0.1600
      5 O          64.9669   91.9782   11.1121 O.3     1  UNL1       -0.4374
      6 C          63.6385   91.3999   10.7239 C.2     1  UNL1        0.4051
      7 O          63.1673   91.4910    9.3028 O.2     1  UNL1       -0.2262
      8 C          66.3126   92.0479   13.7415 C.ar    1  UNL1        0.0138
      9 C          67.7947   91.8481   13.6265 C.ar    1  UNL1       -0.0010
     10 C          68.6691   92.0089   14.8347 C.ar    1  UNL1       -0.0002
     11 C          68.0613   92.3695   16.1577 C.ar    1  UNL1       -0.0000
     12 C          66.5792   92.5694   16.2727 C.ar    1  UNL1       -0.0002
     13 C          65.7047   92.4086   15.0645 C.ar    1  UNL1       -0.0010
     14 C          60.1892   90.7287   11.9357 C.3     1  UNL1        0.0265
     15 C          61.4527   90.1523   11.3688 C.3     1  UNL1        0.1011
     16 C          61.3876   88.9974   10.4136 C.ar    1  UNL1       -0.0040
     17 C          62.2992   87.8205   10.5968 C.ar    1  UNL1        0.0004
     18 C          62.2342   86.6657    9.6416 C.ar    1  UNL1        0.0368
     19 C          61.2575   86.6880    8.5034 C.ar    1  UNL1        0.1443
     20 C          60.3459   87.8650    8.3203 C.ar    1  UNL1        0.0368
     21 C          60.4109   89.0197    9.2754 C.ar    1  UNL1        0.0004
     22 O          61.1924   85.5331    7.5482 O.3     1  UNL1       -0.4236
     23 C          62.4442   84.7937    7.1792 C.3     1  UNL1        0.5087
     24 F          62.7564   84.5201    5.7377 F       1  UNL1       -0.1550
     25 F          63.3839   84.3278    8.2516 F       1  UNL1       -0.1550
     26 C          66.5991   92.6123   11.9199 C.3     1  UNL1        0.0714
     27 C          66.4177   93.3700   10.6382 C.3     1  UNL1        0.0922
     28 C          65.6491   94.4284   11.3726 C.3     1  UNL1        0.0294
     29 C          67.1862   92.3118    9.9038 C.3     1  UNL1        0.0294
     30 O          66.2362   94.1278    9.3565 O.3     1  UNL1       -0.3866
     31 H          65.7285   94.9363    9.5280 H       1  UNL1        0.2102
@<TRIPOS>BOND
     1    15    14    1
     2    15    16    1
     3    16    17   ar
     4    17    18   ar
     5    18    19   ar
     6    19    22    1
     7    22    23    1
     8    23    24    1
     9    23    25    1
    10    19    20   ar
    11    20    21   ar
    12    15     1    1
    13     1     2    1
    14     2     3    1
    15     3     4    1
    16     4    26    1
    17    26    27    1
    18    27    28    1
    19    27    29    1
    20    27    30    1
    21     4     8    1
    22     8     9   ar
    23     9    10   ar
    24    10    11   ar
    25    11    12   ar
    26    12    13   ar
    27     4     5    1
    28     5     6    1
    29     6     7    2
    30    21    16   ar
    31     6     1   am
    32    13     8   ar
    33    30    31    1
@<TRIPOS>MOLECULE
*****
 31 33 0 0 0
SMALL
GASTEIGER

@<TRIPOS>ATOM
      1 N          63.3994   88.9206   12.6798 N.am    1  UNL1       -0.2438
      2 C          62.7794   89.1269   11.3296 C.3     1  UNL1        0.1009
      3 C          62.3037   87.9472   10.5346 C.3     1  UNL1        0.0662
      4 C          62.4479   86.5613   11.0898 C.3     1  UNL1        0.1600
      5 O          63.0679   86.3549   12.4401 O.3     1  UNL1       -0.4374
      6 C          63.5436   87.5346   13.2350 C.2     1  UNL1        0.4051
      7 O          64.1635   87.3284   14.5852 O.2     1  UNL1       -0.2262
      8 C          61.7998   86.2485    9.7736 C.ar    1  UNL1        0.0138
      9 C          62.5699   85.5189    8.7131 C.ar    1  UNL1       -0.0010
     10 C          61.9218   85.2061    7.3970 C.ar    1  UNL1       -0.0002
     11 C          60.5038   85.6229    7.1414 C.ar    1  UNL1       -0.0000
     12 C          59.7337   86.3525    8.2019 C.ar    1  UNL1       -0.0002
     13 C          60.3818   86.6653    9.5181 C.ar    1  UNL1       -0.0010
     14 C          63.5030   90.2287   14.9221 C.3     1  UNL1        0.0265
     15 C          63.8751   90.1003   13.4747 C.3     1  UNL1        0.1011
     16 C          64.7231   91.1517   12.8223 C.ar    1  UNL1       -0.0040
     17 C          65.9385   91.6784   13.5261 C.ar    1  UNL1        0.0004
     18 C          66.7864   92.7297   12.8737 C.ar    1  UNL1        0.0368
     19 C          66.4189   93.2543   11.5173 C.ar    1  UNL1        0.1443
     20 C          65.2035   92.7277   10.8134 C.ar    1  UNL1        0.0368
     21 C          64.3557   91.6763   11.4659 C.ar    1  UNL1        0.0004
     22 O          67.2669   94.3057   10.8648 O.3     1  UNL1       -0.4236
     23 C          67.7425   94.1171    9.4548 C.3     1  UNL1        0.5087
     24 F          67.9876   95.3107    8.5800 F       1  UNL1       -0.1550
     25 F          67.9731   92.7349    8.9196 F       1  UNL1       -0.1550
     26 C          62.3670   85.0666   11.1879 C.3     1  UNL1        0.0714
     27 C          63.2739   84.3265   12.1258 C.3     1  UNL1        0.0922
     28 C          62.2829   84.5184   13.2355 C.3     1  UNL1        0.0294
     29 C          64.2647   84.1345   11.0162 C.3     1  UNL1        0.0294
     30 O          64.1807   83.5863   13.0638 O.3     1  UNL1       -0.3866
     31 H          63.7720   83.5438   13.9425 H       1  UNL1        0.2102
@<TRIPOS>BOND
     1    15    14    1
     2    15    16    1
     3    16    17   ar
     4    17    18   ar
     5    18    19   ar
     6    19    22    1
     7    22    23    1
     8    23    24    1
     9    23    25    1
    10    19    20   ar
    11    20    21   ar
    12    15     1    1
    13     1     2    1
    14     2     3    1
    15     3     4    1
    16     4    26    1
    17    26    27    1
    18    27    28    1
    19    27    29    1
    20    27    30    1
    21     4     8    1
    22     8     9   ar
    23     9    10   ar
    24    10    11   ar
    25    11    12   ar
    26    12    13   ar
    27     4     5    1
    28     5     6    1
    29     6     7    2
    30    21    16   ar
    31     6     1   am
    32    13     8   ar
    33    30    31    1
@<TRIPOS>MOLECULE
*****
 31 33 0 0 0
SMALL
GASTEIGER

@<TRIPOS>ATOM
      1 N          63.5650   89.0300   13.1794 N.am    1  UNL1       -0.2438
      2 C          64.0698   87.7205   13.7089 C.3     1  UNL1        0.1009
      3 C          63.5863   86.4329   13.1103 C.3     1  UNL1        0.0662
      4 C          62.5978   86.4548   11.9823 C.3     1  UNL1        0.1600
      5 O          62.0929   87.7643   11.4528 O.3     1  UNL1       -0.4374
      6 C          62.5765   89.0519   12.0513 C.2     1  UNL1        0.4051
      7 O          62.0716   90.3613   11.5219 O.2     1  UNL1       -0.2262
      8 C          62.7816   84.9743   12.1389 C.ar    1  UNL1        0.0138
      9 C          63.2704   84.1528   10.9830 C.ar    1  UNL1       -0.0010
     10 C          63.4542   82.6723   11.1396 C.ar    1  UNL1       -0.0002
     11 C          63.1491   82.0135   12.4521 C.ar    1  UNL1       -0.0000
     12 C          62.6602   82.8350   13.6081 C.ar    1  UNL1       -0.0002
     13 C          62.4765   84.3154   13.4514 C.ar    1  UNL1       -0.0010
     14 C          63.6393   90.6979   15.1700 C.3     1  UNL1        0.0265
     15 C          64.0485   90.3176   13.7780 C.3     1  UNL1        0.1011
     16 C          64.9414   91.2248   12.9844 C.ar    1  UNL1       -0.0040
     17 C          66.2978   91.5901   13.5104 C.ar    1  UNL1        0.0004
     18 C          67.1906   92.4973   12.7169 C.ar    1  UNL1        0.0368
     19 C          66.7270   93.0393   11.3973 C.ar    1  UNL1        0.1443
     20 C          65.3707   92.6741   10.8712 C.ar    1  UNL1        0.0368
     21 C          64.4779   91.7668   11.6648 C.ar    1  UNL1        0.0004
     22 O          67.6199   93.9466   10.6037 O.3     1  UNL1       -0.4236
     23 C          68.1747   93.4892    9.2873 C.3     1  UNL1        0.5087
     24 F          69.1568   92.3563    9.2401 F       1  UNL1       -0.1550
     25 F          67.7474   94.1647    8.0180 F       1  UNL1       -0.1550
     26 C          61.6732   85.9625   10.9086 C.3     1  UNL1        0.0714
     27 C          61.2152   86.8957    9.8273 C.3     1  UNL1        0.0922
     28 C          60.0445   87.3012   10.6730 C.3     1  UNL1        0.0294
     29 C          62.3858   86.4903    8.9816 C.3     1  UNL1        0.0294
     30 O          60.7572   87.8290    8.7460 O.3     1  UNL1       -0.3866
     31 H          59.9448   88.2773    9.0286 H       1  UNL1        0.2102
@<TRIPOS>BOND
     1    15    14    1
     2    15    16    1
     3    16    17   ar
     4    17    18   ar
     5    18    19   ar
     6    19    22    1
     7    22    23    1
     8    23    24    1
     9    23    25    1
    10    19    20   ar
    11    20    21   ar
    12    15     1    1
    13     1     2    1
    14     2     3    1
    15     3     4    1
    16     4    26    1
    17    26    27    1
    18    27    28    1
    19    27    29    1
    20    27    30    1
    21     4     8    1
    22     8     9   ar
    23     9    10   ar
    24    10    11   ar
    25    11    12   ar
    26    12    13   ar
    27     4     5    1
    28     5     6    1
    29     6     7    2
    30    21    16   ar
    31     6     1   am
    32    13     8   ar
    33    30    31    1
@<TRIPOS>MOLECULE
*****
 31 33 0 0 0
SMALL
GASTEIGER

@<TRIPOS>ATOM
      1 N          62.3680   88.7631   11.2782 N.am    1  UNL1       -0.2438
      2 C          62.7417   87.6192   12.1737 C.3     1  UNL1        0.1009
      3 C          62.8555   86.2331   11.6119 C.3     1  UNL1        0.0662
      4 C          62.5958   85.9908   10.1546 C.3     1  UNL1        0.1600
      5 O          62.2222   87.1347    9.2590 O.3     1  UNL1       -0.4374
      6 C          62.1083   88.5208    9.8208 C.2     1  UNL1        0.4051
      7 O          61.7347   89.6647    8.9254 O.2     1  UNL1       -0.2262
      8 C          62.9181   84.5943   10.5974 C.ar    1  UNL1        0.0138
      9 C          63.8194   83.7325    9.7638 C.ar    1  UNL1       -0.0010
     10 C          64.1417   82.3360   10.2066 C.ar    1  UNL1       -0.0002
     11 C          63.5627   81.8015   11.4829 C.ar    1  UNL1       -0.0000
     12 C          62.6614   82.6634   12.3165 C.ar    1  UNL1       -0.0002
     13 C          62.3391   84.0598   11.8737 C.ar    1  UNL1       -0.0010
     14 C          60.9058   90.7889   11.9910 C.3     1  UNL1        0.0265
     15 C          62.2542   90.1492   11.8401 C.3     1  UNL1        0.1011
     16 C          63.4887   90.8957   12.2510 C.ar    1  UNL1       -0.0040
     17 C          63.9712   90.8241   13.6694 C.ar    1  UNL1        0.0004
     18 C          65.2057   91.5705   14.0803 C.ar    1  UNL1        0.0368
     19 C          65.9576   92.3886   13.0727 C.ar    1  UNL1        0.1443
     20 C          65.4751   92.4603   11.6542 C.ar    1  UNL1        0.0368
     21 C          64.2406   91.7138   11.2434 C.ar    1  UNL1        0.0004
     22 O          67.1922   93.1351   13.4836 O.3     1  UNL1       -0.4236
     23 C          67.8004   92.8934   14.8332 C.3     1  UNL1        0.5087
     24 F          68.0993   91.4934   15.2813 F       1  UNL1       -0.1550
     25 F          68.1099   94.0516   15.7347 F       1  UNL1       -0.1550
     26 C          62.4480   85.2635    8.8510 C.3     1  UNL1        0.0714
     27 C          61.2314   85.4854    8.0021 C.3     1  UNL1        0.0922
     28 C          61.9715   84.9655    6.8054 C.3     1  UNL1        0.0294
     29 C          60.4913   86.0053    9.1988 C.3     1  UNL1        0.0294
     30 O          60.0148   85.7073    7.1532 O.3     1  UNL1       -0.3866
     31 H          60.2039   85.4381    6.2407 H       1  UNL1        0.2102
@<TRIPOS>BOND
     1    15    14    1
     2    15    16    1
     3    16    17   ar
     4    17    18   ar
     5    18    19   ar
     6    19    22    1
     7    22    23    1
     8    23    24    1
     9    23    25    1
    10    19    20   ar
    11    20    21   ar
    12    15     1    1
    13     1     2    1
    14     2     3    1
    15     3     4    1
    16     4    26    1
    17    26    27    1
    18    27    28    1
    19    27    29    1
    20    27    30    1
    21     4     8    1
    22     8     9   ar
    23     9    10   ar
    24    10    11   ar
    25    11    12   ar
    26    12    13   ar
    27     4     5    1
    28     5     6    1
    29     6     7    2
    30    21    16   ar
    31     6     1   am
    32    13     8   ar
    33    30    31    1
@<TRIPOS>MOLECULE
*****
 31 33 0 0 0
SMALL
GASTEIGER

@<TRIPOS>ATOM
      1 N          62.2480   88.6282   11.2090 N.am    1  UNL1       -0.2438
      2 C          62.6496   87.5010   12.1134 C.3     1  UNL1        0.1009
      3 C          62.8087   86.1158   11.5602 C.3     1  UNL1        0.0662
      4 C          62.5662   85.8579   10.1026 C.3     1  UNL1        0.1600
      5 O          62.1645   86.9851    9.1981 O.3     1  UNL1       -0.4374
      6 C          62.0054   88.3703    9.7513 C.2     1  UNL1        0.4051
      7 O          61.6038   89.4975    8.8469 O.2     1  UNL1       -0.2262
      8 C          62.9271   84.4741   10.5554 C.ar    1  UNL1        0.0138
      9 C          62.3411   83.9225   11.8212 C.ar    1  UNL1       -0.0010
     10 C          62.7020   82.5387   12.2740 C.ar    1  UNL1       -0.0002
     11 C          63.6490   81.7067   11.4610 C.ar    1  UNL1       -0.0000
     12 C          64.2351   82.2584   10.1953 C.ar    1  UNL1       -0.0002
     13 C          63.8741   83.6421    9.7424 C.ar    1  UNL1       -0.0010
     14 C          60.7576   90.4630   12.2870 C.3     1  UNL1        0.0265
     15 C          62.0888   90.0133   11.7622 C.3     1  UNL1        0.1011
     16 C          63.2611   90.9489   11.7905 C.ar    1  UNL1       -0.0040
     17 C          63.6721   91.6742   10.5436 C.ar    1  UNL1        0.0004
     18 C          64.8443   92.6096   10.5720 C.ar    1  UNL1        0.0368
     19 C          65.6055   92.8197   11.8474 C.ar    1  UNL1        0.1443
     20 C          65.1945   92.0944   13.0943 C.ar    1  UNL1        0.0368
     21 C          64.0223   91.1590   13.0659 C.ar    1  UNL1        0.0004
     22 O          66.7777   93.7553   11.8757 O.3     1  UNL1       -0.4236
     23 C          66.7609   95.0041   11.0451 C.3     1  UNL1        0.5087
     24 F          65.8355   96.1296   11.4015 F       1  UNL1       -0.1550
     25 F          67.6695   95.1276    9.8579 F       1  UNL1       -0.1550
     26 C          62.4490   85.1194    8.8022 C.3     1  UNL1        0.0714
     27 C          61.2813   85.3761    7.8965 C.3     1  UNL1        0.0922
     28 C          60.4841   85.8744    9.0654 C.3     1  UNL1        0.0294
     29 C          62.0784   84.8779    6.7276 C.3     1  UNL1        0.0294
     30 O          60.1135   85.6330    6.9908 O.3     1  UNL1       -0.3866
     31 H          59.3758   85.9921    7.5082 H       1  UNL1        0.2102
@<TRIPOS>BOND
     1    15    14    1
     2    15    16    1
     3    16    17   ar
     4    17    18   ar
     5    18    19   ar
     6    19    22    1
     7    22    23    1
     8    23    24    1
     9    23    25    1
    10    19    20   ar
    11    20    21   ar
    12    15     1    1
    13     1     2    1
    14     2     3    1
    15     3     4    1
    16     4    26    1
    17    26    27    1
    18    27    28    1
    19    27    29    1
    20    27    30    1
    21     4     8    1
    22     8     9   ar
    23     9    10   ar
    24    10    11   ar
    25    11    12   ar
    26    12    13   ar
    27     4     5    1
    28     5     6    1
    29     6     7    2
    30    21    16   ar
    31     6     1   am
    32    13     8   ar
    33    30    31    1
