@<TRIPOS>MOLECULE
*****
 30 34 0 0 0
SMALL
GASTEIGER

@<TRIPOS>ATOM
      1 C          63.9817   91.6837   10.1744 C.3     1  UNL1        0.1316
      2 N          63.8609   91.2744   11.6125 N.ar    1  UNL1       -0.3124
      3 C          62.7952   90.3917   12.1913 C.ar    1  UNL1        0.1329
      4 N          63.0602   90.2478   13.6607 N.ar    1  UNL1       -0.2303
      5 C          64.2897   91.0415   13.9899 C.ar    1  UNL1        0.0983
      6 C          65.0226   91.2684   15.2788 C.ar    1  UNL1        0.0206
      7 C          66.2503   92.1298   15.3019 C.ar    1  UNL1        0.0016
      8 C          66.7451   92.7644   14.0360 C.ar    1  UNL1        0.0015
      9 C          66.0123   92.5374   12.7470 C.ar    1  UNL1        0.0173
     10 C          64.7846   91.6760   12.7240 C.ar    1  UNL1        0.0786
     11 C          66.5071   93.1720   11.4811 C.ar    1  UNL1        0.0014
     12 C          67.4426   92.4202   10.5813 C.ar    1  UNL1        0.0000
     13 C          67.9374   93.0547    9.3154 C.ar    1  UNL1        0.0000
     14 C          67.4968   94.4410    8.9493 C.ar    1  UNL1        0.0000
     15 C          66.5614   95.1927    9.8492 C.ar    1  UNL1        0.0000
     16 C          66.0665   94.5582   11.1151 C.ar    1  UNL1        0.0000
     17 C          61.6632   89.7633   11.4339 C.3     1  UNL1        0.1852
     18 C          61.7667   88.3387   10.9759 C.2     1  UNL1        0.3563
     19 N          62.3062   87.2901   11.9030 N.2     1  UNL1       -0.0039
     20 C          62.4096   85.8656   11.4450 C.2     1  UNL1        0.3159
     21 C          61.9736   85.4895   10.0599 C.3     1  UNL1        0.2333
     22 C          61.4342   86.5380    9.1328 C.2     1  UNL1        0.3644
     23 O          60.9982   86.1619    7.7477 O.2     1  UNL1       -0.2422
     24 N          61.3307   87.9627    9.5908 N.am    1  UNL1        0.0288
     25 N          62.9491   84.8169   12.3721 N.pl3   1  UNL1       -0.1888
     26 C          63.6784   85.2216   13.6188 C.3     1  UNL1        0.2343
     27 C          64.2178   84.1731   14.5459 C.3     1  UNL1        0.1929
     28 O          64.0280   82.7199   14.2262 O.3     1  UNL1       -0.3449
     29 C          63.2988   82.3153   12.9795 C.3     1  UNL1        0.1929
     30 C          62.7593   83.3638   12.0524 C.3     1  UNL1        0.2343
@<TRIPOS>BOND
     1     1     2    1
     2     2     3   ar
     3     3    17    1
     4    17    18    1
     5    18    19    1
     6    19    20    2
     7    20    25    1
     8    25    26    1
     9    26    27    1
    10    27    28    1
    11    28    29    1
    12    29    30    1
    13    20    21    1
    14    21    22    1
    15    22    23    2
    16    22    24    1
    17     3     4   ar
    18     4     5   ar
    19     5     6   ar
    20     6     7   ar
    21     7     8   ar
    22     8     9   ar
    23     9    11    1
    24    11    12   ar
    25    12    13   ar
    26    13    14   ar
    27    14    15   ar
    28    15    16   ar
    29     9    10   ar
    30    10     2   ar
    31    24    18    2
    32    10     5   ar
    33    30    25    1
    34    16    11   ar
@<TRIPOS>MOLECULE
*****
 30 34 0 0 0
SMALL
GASTEIGER

@<TRIPOS>ATOM
      1 C          62.3861   88.7545   10.7687 C.3     1  UNL1        0.1316
      2 N          62.9750   88.2017   12.0327 N.ar    1  UNL1       -0.3124
      3 C          63.4602   89.0037   13.2037 C.ar    1  UNL1        0.1329
      4 N          63.9672   88.0475   14.2422 N.ar    1  UNL1       -0.2303
      5 C          63.7953   86.6545   13.7131 C.ar    1  UNL1        0.0983
      6 C          64.1180   85.3116   14.2983 C.ar    1  UNL1        0.0206
      7 C          63.8274   84.0640   13.5179 C.ar    1  UNL1        0.0016
      8 C          63.2142   84.1593   12.1523 C.ar    1  UNL1        0.0015
      9 C          62.8915   85.5022   11.5671 C.ar    1  UNL1        0.0173
     10 C          63.1821   86.7498   12.3475 C.ar    1  UNL1        0.0786
     11 C          62.2783   85.5975   10.2014 C.ar    1  UNL1        0.0014
     12 C          60.9035   86.1738   10.0352 C.ar    1  UNL1        0.0000
     13 C          60.2903   86.2691    8.6696 C.ar    1  UNL1        0.0000
     14 C          61.0519   85.7882    7.4702 C.ar    1  UNL1        0.0000
     15 C          62.4267   85.2119    7.6365 C.ar    1  UNL1        0.0000
     16 C          63.0400   85.1166    9.0021 C.ar    1  UNL1        0.0000
     17 C          63.4417   90.4994   13.3164 C.3     1  UNL1        0.1852
     18 C          64.7308   91.2661   13.3348 C.2     1  UNL1        0.3563
     19 N          65.0556   92.2140   12.2185 N.2     1  UNL1       -0.0039
     20 C          66.3447   92.9808   12.2369 C.2     1  UNL1        0.3159
     21 C          67.3090   92.7997   13.3715 C.3     1  UNL1        0.2333
     22 C          66.9842   91.8519   14.4878 C.2     1  UNL1        0.3644
     23 O          67.9484   91.6708   15.6224 O.2     1  UNL1       -0.2422
     24 N          65.6951   91.0850   14.4694 N.am    1  UNL1        0.0288
     25 N          66.6695   93.9287   11.1206 N.pl3   1  UNL1       -0.1888
     26 C          67.3173   93.4181    9.8677 C.3     1  UNL1        0.2343
     27 C          67.6422   94.3659    8.7515 C.3     1  UNL1        0.1929
     28 O          67.3192   95.8243    8.8881 O.3     1  UNL1       -0.3449
     29 C          66.6714   96.3349   10.1409 C.3     1  UNL1        0.1929
     30 C          66.3466   95.3871   11.2572 C.3     1  UNL1        0.2343
@<TRIPOS>BOND
     1     1     2    1
     2     2     3   ar
     3     3    17    1
     4    17    18    1
     5    18    19    1
     6    19    20    2
     7    20    25    1
     8    25    26    1
     9    26    27    1
    10    27    28    1
    11    28    29    1
    12    29    30    1
    13    20    21    1
    14    21    22    1
    15    22    23    2
    16    22    24    1
    17     3     4   ar
    18     4     5   ar
    19     5     6   ar
    20     6     7   ar
    21     7     8   ar
    22     8     9   ar
    23     9    11    1
    24    11    12   ar
    25    12    13   ar
    26    13    14   ar
    27    14    15   ar
    28    15    16   ar
    29     9    10   ar
    30    10     2   ar
    31    24    18    2
    32    10     5   ar
    33    30    25    1
    34    16    11   ar
@<TRIPOS>MOLECULE
*****
 30 34 0 0 0
SMALL
GASTEIGER

@<TRIPOS>ATOM
      1 C          63.4843   87.3811   12.7151 C.3     1  UNL1        0.1316
      2 N          62.6640   88.3879   11.9643 N.ar    1  UNL1       -0.3124
      3 C          62.4884   89.8318   12.3307 C.ar    1  UNL1        0.1329
      4 N          61.5913   90.4636   11.3080 N.ar    1  UNL1       -0.2303
      5 C          61.2125   89.4103   10.3095 C.ar    1  UNL1        0.0983
      6 C          60.3495   89.4536    9.0835 C.ar    1  UNL1        0.0206
      7 C          60.1495   88.2140    8.2629 C.ar    1  UNL1        0.0016
      8 C          60.8126   86.9310    8.6685 C.ar    1  UNL1        0.0015
      9 C          61.6755   86.8877    9.8946 C.ar    1  UNL1        0.0173
     10 C          61.8755   88.1274   10.7151 C.ar    1  UNL1        0.0786
     11 C          62.3386   85.6048   10.3002 C.ar    1  UNL1        0.0014
     12 C          62.0885   85.0294   11.6626 C.ar    1  UNL1        0.0000
     13 C          62.7515   83.7464   12.0682 C.ar    1  UNL1        0.0000
     14 C          63.6646   83.0389   11.1113 C.ar    1  UNL1        0.0000
     15 C          63.9147   83.6144    9.7489 C.ar    1  UNL1        0.0000
     16 C          63.2517   84.8973    9.3433 C.ar    1  UNL1        0.0000
     17 C          63.1021   90.5225   13.5124 C.3     1  UNL1        0.1852
     18 C          64.4606   91.1472   13.3937 C.2     1  UNL1        0.3563
     19 N          64.7951   91.9943   12.2018 N.2     1  UNL1       -0.0039
     20 C          66.1536   92.6191   12.0831 C.2     1  UNL1        0.3159
     21 C          67.1777   92.3967   13.1563 C.3     1  UNL1        0.2333
     22 C          66.8433   91.5496   14.3481 C.2     1  UNL1        0.3644
     23 O          67.8674   91.3272   15.4213 O.2     1  UNL1       -0.2422
     24 N          65.4847   90.9248   14.4669 N.am    1  UNL1        0.0288
     25 N          66.4880   93.4662   10.8912 N.pl3   1  UNL1       -0.1888
     26 C          67.4516   92.9610    9.8586 C.3     1  UNL1        0.2343
     27 C          67.7860   93.8080    8.6668 C.3     1  UNL1        0.1929
     28 O          67.1570   95.1604    8.5075 O.3     1  UNL1       -0.3449
     29 C          66.1934   95.6656    9.5401 C.3     1  UNL1        0.1929
     30 C          65.8589   94.8185   10.7320 C.3     1  UNL1        0.2343
@<TRIPOS>BOND
     1     1     2    1
     2     2     3   ar
     3     3    17    1
     4    17    18    1
     5    18    19    1
     6    19    20    2
     7    20    25    1
     8    25    26    1
     9    26    27    1
    10    27    28    1
    11    28    29    1
    12    29    30    1
    13    20    21    1
    14    21    22    1
    15    22    23    2
    16    22    24    1
    17     3     4   ar
    18     4     5   ar
    19     5     6   ar
    20     6     7   ar
    21     7     8   ar
    22     8     9   ar
    23     9    11    1
    24    11    12   ar
    25    12    13   ar
    26    13    14   ar
    27    14    15   ar
    28    15    16   ar
    29     9    10   ar
    30    10     2   ar
    31    24    18    2
    32    10     5   ar
    33    30    25    1
    34    16    11   ar
@<TRIPOS>MOLECULE
*****
 30 34 0 0 0
SMALL
GASTEIGER

@<TRIPOS>ATOM
      1 C          62.0187   89.1592   12.6521 C.3     1  UNL1        0.1316
      2 N          62.8821   90.2008   12.0042 N.ar    1  UNL1       -0.3124
      3 C          62.6677   90.8045   10.6479 C.ar    1  UNL1        0.1329
      4 N          63.7645   91.7983   10.4044 N.ar    1  UNL1       -0.2303
      5 C          64.6567   91.8089   11.6102 C.ar    1  UNL1        0.0983
      6 C          65.8952   92.5899   11.9356 C.ar    1  UNL1        0.0206
      7 C          66.5883   92.3836   13.2497 C.ar    1  UNL1        0.0016
      8 C          66.0429   91.3963   14.2385 C.ar    1  UNL1        0.0015
      9 C          64.8044   90.6152   13.9131 C.ar    1  UNL1        0.0173
     10 C          64.1113   90.8215   12.5990 C.ar    1  UNL1        0.0786
     11 C          64.2590   89.6278   14.9018 C.ar    1  UNL1        0.0014
     12 C          63.4989   90.1099   16.1018 C.ar    1  UNL1        0.0000
     13 C          62.9535   89.1225   17.0905 C.ar    1  UNL1        0.0000
     14 C          63.1682   87.6530   16.8793 C.ar    1  UNL1        0.0000
     15 C          63.9283   87.1710   15.6794 C.ar    1  UNL1        0.0000
     16 C          64.4737   88.1584   14.6907 C.ar    1  UNL1        0.0000
     17 C          61.5525   90.4726    9.7013 C.3     1  UNL1        0.1852
     18 C          61.1935   89.0403    9.4379 C.2     1  UNL1        0.3563
     19 N          62.0381   87.9386   10.0065 N.2     1  UNL1       -0.0039
     20 C          61.6791   86.5063    9.7431 C.2     1  UNL1        0.3159
     21 C          60.4755   86.1754    8.9112 C.3     1  UNL1        0.2333
     22 C          59.6310   87.2770    8.3427 C.2     1  UNL1        0.3644
     23 O          58.4274   86.9461    7.5108 O.2     1  UNL1       -0.2422
     24 N          59.9899   88.7094    8.6060 N.am    1  UNL1        0.0288
     25 N          62.5237   85.4046   10.3117 N.pl3   1  UNL1       -0.1888
     26 C          62.6340   85.2351   11.7980 C.3     1  UNL1        0.2343
     27 C          63.4785   84.1335   12.3665 C.3     1  UNL1        0.1929
     28 O          64.2127   83.2015   11.4488 O.3     1  UNL1       -0.3449
     29 C          64.1023   83.3710    9.9625 C.3     1  UNL1        0.1929
     30 C          63.2578   84.4726    9.3939 C.3     1  UNL1        0.2343
@<TRIPOS>BOND
     1     1     2    1
     2     2     3   ar
     3     3    17    1
     4    17    18    1
     5    18    19    1
     6    19    20    2
     7    20    25    1
     8    25    26    1
     9    26    27    1
    10    27    28    1
    11    28    29    1
    12    29    30    1
    13    20    21    1
    14    21    22    1
    15    22    23    2
    16    22    24    1
    17     3     4   ar
    18     4     5   ar
    19     5     6   ar
    20     6     7   ar
    21     7     8   ar
    22     8     9   ar
    23     9    11    1
    24    11    12   ar
    25    12    13   ar
    26    13    14   ar
    27    14    15   ar
    28    15    16   ar
    29     9    10   ar
    30    10     2   ar
    31    24    18    2
    32    10     5   ar
    33    30    25    1
    34    16    11   ar
@<TRIPOS>MOLECULE
*****
 30 34 0 0 0
SMALL
GASTEIGER

@<TRIPOS>ATOM
      1 C          64.3576   91.7199   10.6385 C.3     1  UNL1        0.1316
      2 N          64.3545   91.4816   12.1194 N.ar    1  UNL1       -0.3124
      3 C          63.3951   90.6060   12.8696 C.ar    1  UNL1        0.1329
      4 N          63.7580   90.6604   14.3240 N.ar    1  UNL1       -0.2303
      5 C          64.9417   91.5696   14.4727 C.ar    1  UNL1        0.0983
      6 C          65.7314   92.0010   15.6728 C.ar    1  UNL1        0.0206
      7 C          66.8898   92.9399   15.5103 C.ar    1  UNL1        0.0016
      8 C          67.2585   93.4475   14.1478 C.ar    1  UNL1        0.0015
      9 C          66.4688   93.0161   12.9477 C.ar    1  UNL1        0.0173
     10 C          65.3103   92.0772   13.1102 C.ar    1  UNL1        0.0786
     11 C          66.8374   93.5237   11.5852 C.ar    1  UNL1        0.0014
     12 C          67.6301   92.6579   10.6515 C.ar    1  UNL1        0.0000
     13 C          67.9988   93.1655    9.2890 C.ar    1  UNL1        0.0000
     14 C          67.5748   94.5389    8.8602 C.ar    1  UNL1        0.0000
     15 C          66.7821   95.4047    9.7939 C.ar    1  UNL1        0.0000
     16 C          66.4134   94.8971   11.1564 C.ar    1  UNL1        0.0000
     17 C          62.2703   89.8148   12.2705 C.3     1  UNL1        0.1852
     18 C          62.4702   88.3684   11.9273 C.2     1  UNL1        0.3563
     19 N          62.0424   87.8496   10.5864 N.2     1  UNL1       -0.0039
     20 C          62.2423   86.4032   10.2431 C.2     1  UNL1        0.3159
     21 C          62.8702   85.4755   11.2407 C.3     1  UNL1        0.2333
     22 C          63.2980   85.9942   12.5816 C.2     1  UNL1        0.3644
     23 O          63.9258   85.0665   13.5791 O.2     1  UNL1       -0.2422
     24 N          63.0981   87.4407   12.9248 N.am    1  UNL1        0.0288
     25 N          61.8145   85.8844    8.9023 N.pl3   1  UNL1       -0.1888
     26 C          60.4114   86.1119    8.4230 C.3     1  UNL1        0.2343
     27 C          59.9836   85.5932    7.0822 C.3     1  UNL1        0.1929
     28 O          60.9587   84.8470    6.2207 O.3     1  UNL1       -0.3449
     29 C          62.3618   84.6195    6.7000 C.3     1  UNL1        0.1929
     30 C          62.7897   85.1383    8.0408 C.3     1  UNL1        0.2343
@<TRIPOS>BOND
     1     1     2    1
     2     2     3   ar
     3     3    17    1
     4    17    18    1
     5    18    19    1
     6    19    20    2
     7    20    25    1
     8    25    26    1
     9    26    27    1
    10    27    28    1
    11    28    29    1
    12    29    30    1
    13    20    21    1
    14    21    22    1
    15    22    23    2
    16    22    24    1
    17     3     4   ar
    18     4     5   ar
    19     5     6   ar
    20     6     7   ar
    21     7     8   ar
    22     8     9   ar
    23     9    11    1
    24    11    12   ar
    25    12    13   ar
    26    13    14   ar
    27    14    15   ar
    28    15    16   ar
    29     9    10   ar
    30    10     2   ar
    31    24    18    2
    32    10     5   ar
    33    30    25    1
    34    16    11   ar
@<TRIPOS>MOLECULE
*****
 30 34 0 0 0
SMALL
GASTEIGER

@<TRIPOS>ATOM
      1 C          63.1918   88.0479   11.7426 C.3     1  UNL1        0.1316
      2 N          62.1813   88.6038   10.7835 N.ar    1  UNL1       -0.3124
      3 C          61.8019   90.0480   10.6413 C.ar    1  UNL1        0.1329
      4 N          60.7589   90.1497    9.5681 N.ar    1  UNL1       -0.2303
      5 C          60.4937   88.7684    9.0470 C.ar    1  UNL1        0.0983
      6 C          59.5654   88.2572    7.9855 C.ar    1  UNL1        0.0206
      7 C          59.5161   86.7905    7.6752 C.ar    1  UNL1        0.0016
      8 C          60.3952   85.8350    8.4264 C.ar    1  UNL1        0.0015
      9 C          61.3236   86.3462    9.4878 C.ar    1  UNL1        0.0173
     10 C          61.3729   87.8129    9.7981 C.ar    1  UNL1        0.0786
     11 C          62.2027   85.3907   10.2390 C.ar    1  UNL1        0.0014
     12 C          63.2491   84.6021    9.5089 C.ar    1  UNL1        0.0000
     13 C          64.1282   83.6467   10.2601 C.ar    1  UNL1        0.0000
     14 C          63.9609   83.4798   11.7413 C.ar    1  UNL1        0.0000
     15 C          62.9145   84.2683   12.4714 C.ar    1  UNL1        0.0000
     16 C          62.0353   85.2238   11.7202 C.ar    1  UNL1        0.0000
     17 C          62.3664   91.1900   11.4333 C.3     1  UNL1        0.1852
     18 C          63.0851   90.9254   12.7230 C.2     1  UNL1        0.3563
     19 N          64.4271   91.5466   12.9749 N.2     1  UNL1       -0.0039
     20 C          65.1458   91.2820   14.2646 C.2     1  UNL1        0.3159
     21 C          64.5227   90.3962   15.3025 C.3     1  UNL1        0.2333
     22 C          63.1809   89.7750   15.0506 C.2     1  UNL1        0.3644
     23 O          62.5578   88.8892   16.0885 O.2     1  UNL1       -0.2422
     24 N          62.4620   90.0396   13.7609 N.am    1  UNL1        0.0288
     25 N          66.4878   91.9033   14.5165 N.pl3   1  UNL1       -0.1888
     26 C          67.6243   91.6416   13.5732 C.3     1  UNL1        0.2343
     27 C          68.9662   92.2628   13.8250 C.3     1  UNL1        0.1929
     28 O          69.1715   93.1456   15.0202 O.3     1  UNL1       -0.3449
     29 C          68.0350   93.4072   15.9635 C.3     1  UNL1        0.1929
     30 C          66.6931   92.7860   15.7117 C.3     1  UNL1        0.2343
@<TRIPOS>BOND
     1     1     2    1
     2     2     3   ar
     3     3    17    1
     4    17    18    1
     5    18    19    1
     6    19    20    2
     7    20    25    1
     8    25    26    1
     9    26    27    1
    10    27    28    1
    11    28    29    1
    12    29    30    1
    13    20    21    1
    14    21    22    1
    15    22    23    2
    16    22    24    1
    17     3     4   ar
    18     4     5   ar
    19     5     6   ar
    20     6     7   ar
    21     7     8   ar
    22     8     9   ar
    23     9    11    1
    24    11    12   ar
    25    12    13   ar
    26    13    14   ar
    27    14    15   ar
    28    15    16   ar
    29     9    10   ar
    30    10     2   ar
    31    24    18    2
    32    10     5   ar
    33    30    25    1
    34    16    11   ar
@<TRIPOS>MOLECULE
*****
 30 34 0 0 0
SMALL
GASTEIGER

@<TRIPOS>ATOM
      1 C          63.0785   87.9828   11.5224 C.3     1  UNL1        0.1316
      2 N          62.0426   88.5725   10.6119 N.ar    1  UNL1       -0.3124
      3 C          61.6410   90.0165   10.5515 C.ar    1  UNL1        0.1329
      4 N          60.5766   90.1581    9.5041 N.ar    1  UNL1       -0.2303
      5 C          60.3203   88.8017    8.9172 C.ar    1  UNL1        0.0983
      6 C          59.3790   88.3323    7.8479 C.ar    1  UNL1        0.0206
      7 C          59.3437   86.8830    7.4632 C.ar    1  UNL1        0.0016
      8 C          60.2497   85.9030    8.1478 C.ar    1  UNL1        0.0015
      9 C          61.1911   86.3724    9.2172 C.ar    1  UNL1        0.0173
     10 C          61.2263   87.8217    9.6019 C.ar    1  UNL1        0.0786
     11 C          62.0971   85.3924    9.9018 C.ar    1  UNL1        0.0014
     12 C          61.9449   85.1299   11.3708 C.ar    1  UNL1        0.0000
     13 C          62.8509   84.1499   12.0554 C.ar    1  UNL1        0.0000
     14 C          63.9092   83.4324   11.2711 C.ar    1  UNL1        0.0000
     15 C          64.0614   83.6949    9.8021 C.ar    1  UNL1        0.0000
     16 C          63.1553   84.6748    9.1175 C.ar    1  UNL1        0.0000
     17 C          62.2049   91.1243   11.3910 C.3     1  UNL1        0.1852
     18 C          63.2166   90.8183   12.4553 C.2     1  UNL1        0.3563
     19 N          62.9746   89.6949   13.4194 N.2     1  UNL1       -0.0039
     20 C          63.9863   89.3889   14.4837 C.2     1  UNL1        0.3159
     21 C          65.2400   90.2063   14.5840 C.3     1  UNL1        0.2333
     22 C          65.4820   91.3297   13.6200 C.2     1  UNL1        0.3644
     23 O          66.7357   92.1471   13.7203 O.2     1  UNL1       -0.2422
     24 N          64.4703   91.6357   12.5556 N.am    1  UNL1        0.0288
     25 N          63.7443   88.2655   15.4478 N.pl3   1  UNL1       -0.1888
     26 C          64.1644   86.8697   15.0938 C.3     1  UNL1        0.2343
     27 C          63.9225   85.7463   16.0578 C.3     1  UNL1        0.1929
     28 O          63.2604   86.0187   17.3758 O.3     1  UNL1       -0.3449
     29 C          62.8402   87.4144   17.7299 C.3     1  UNL1        0.1929
     30 C          63.0821   88.5378   16.7659 C.3     1  UNL1        0.2343
@<TRIPOS>BOND
     1     1     2    1
     2     2     3   ar
     3     3    17    1
     4    17    18    1
     5    18    19    1
     6    19    20    2
     7    20    25    1
     8    25    26    1
     9    26    27    1
    10    27    28    1
    11    28    29    1
    12    29    30    1
    13    20    21    1
    14    21    22    1
    15    22    23    2
    16    22    24    1
    17     3     4   ar
    18     4     5   ar
    19     5     6   ar
    20     6     7   ar
    21     7     8   ar
    22     8     9   ar
    23     9    11    1
    24    11    12   ar
    25    12    13   ar
    26    13    14   ar
    27    14    15   ar
    28    15    16   ar
    29     9    10   ar
    30    10     2   ar
    31    24    18    2
    32    10     5   ar
    33    30    25    1
    34    16    11   ar
@<TRIPOS>MOLECULE
*****
 30 34 0 0 0
SMALL
GASTEIGER

@<TRIPOS>ATOM
      1 C          62.1946   86.9109   12.3253 C.3     1  UNL1        0.1316
      2 N          62.5572   85.9378   11.2429 N.ar    1  UNL1       -0.3124
      3 C          62.3180   86.1236    9.7738 C.ar    1  UNL1        0.1329
      4 N          62.8357   84.9086    9.0626 N.ar    1  UNL1       -0.2303
      5 C          63.3949   83.9719   10.0921 C.ar    1  UNL1        0.0983
      6 C          64.0385   82.6220    9.9766 C.ar    1  UNL1        0.0206
      7 C          64.5100   81.9081   11.2087 C.ar    1  UNL1        0.0016
      8 C          64.3379   82.5442   12.5562 C.ar    1  UNL1        0.0015
      9 C          63.6943   83.8941   12.6717 C.ar    1  UNL1        0.0173
     10 C          63.2228   84.6080   11.4396 C.ar    1  UNL1        0.0786
     11 C          63.5222   84.5302   14.0192 C.ar    1  UNL1        0.0014
     12 C          62.3694   84.1347   14.8935 C.ar    1  UNL1        0.0000
     13 C          62.1973   84.7708   16.2410 C.ar    1  UNL1        0.0000
     14 C          63.1781   85.8023   16.7142 C.ar    1  UNL1        0.0000
     15 C          64.3309   86.1977   15.8399 C.ar    1  UNL1        0.0000
     16 C          64.5030   85.5617   14.4924 C.ar    1  UNL1        0.0000
     17 C          61.6741   87.3152    9.1291 C.3     1  UNL1        0.1852
     18 C          61.5579   88.6055    9.8851 C.2     1  UNL1        0.3563
     19 N          62.7949   89.3416   10.3071 N.2     1  UNL1       -0.0039
     20 C          62.6787   90.6319   11.0631 C.2     1  UNL1        0.3159
     21 C          61.3255   91.1862   11.3970 C.3     1  UNL1        0.2333
     22 C          60.0885   90.4503   10.9750 C.2     1  UNL1        0.3644
     23 O          58.7353   91.0046   11.3090 O.2     1  UNL1       -0.2422
     24 N          60.2047   89.1599   10.2190 N.am    1  UNL1        0.0288
     25 N          63.9158   91.3679   11.4852 N.pl3   1  UNL1       -0.1888
     26 C          64.3879   91.2878   12.9067 C.3     1  UNL1        0.2343
     27 C          65.6248   92.0238   13.3287 C.3     1  UNL1        0.1929
     28 O          66.3897   92.8399   12.3293 O.3     1  UNL1       -0.3449
     29 C          65.9176   92.9201   10.9078 C.3     1  UNL1        0.1929
     30 C          64.6806   92.1841   10.4857 C.3     1  UNL1        0.2343
@<TRIPOS>BOND
     1     1     2    1
     2     2     3   ar
     3     3    17    1
     4    17    18    1
     5    18    19    1
     6    19    20    2
     7    20    25    1
     8    25    26    1
     9    26    27    1
    10    27    28    1
    11    28    29    1
    12    29    30    1
    13    20    21    1
    14    21    22    1
    15    22    23    2
    16    22    24    1
    17     3     4   ar
    18     4     5   ar
    19     5     6   ar
    20     6     7   ar
    21     7     8   ar
    22     8     9   ar
    23     9    11    1
    24    11    12   ar
    25    12    13   ar
    26    13    14   ar
    27    14    15   ar
    28    15    16   ar
    29     9    10   ar
    30    10     2   ar
    31    24    18    2
    32    10     5   ar
    33    30    25    1
    34    16    11   ar
@<TRIPOS>MOLECULE
*****
 30 34 0 0 0
SMALL
GASTEIGER

@<TRIPOS>ATOM
      1 C          62.7853   87.5249   12.0487 C.3     1  UNL1        0.1316
      2 N          61.8747   88.1143   11.0127 N.ar    1  UNL1       -0.3124
      3 C          61.3359   89.5142   11.0061 C.ar    1  UNL1        0.1329
      4 N          60.4713   89.6724    9.7907 N.ar    1  UNL1       -0.2303
      5 C          60.4757   88.3703    9.0460 C.ar    1  UNL1        0.0983
      6 C          59.8020   87.9371    7.7778 C.ar    1  UNL1        0.0206
      7 C          59.9956   86.5409    7.2649 C.ar    1  UNL1        0.0016
      8 C          60.8629   85.5779    8.0201 C.ar    1  UNL1        0.0015
      9 C          61.5367   86.0112    9.2883 C.ar    1  UNL1        0.0173
     10 C          61.3431   87.4073    9.8013 C.ar    1  UNL1        0.0786
     11 C          62.4040   85.0482   10.0436 C.ar    1  UNL1        0.0014
     12 C          63.5042   84.3151    9.3350 C.ar    1  UNL1        0.0000
     13 C          64.3716   83.3522   10.0903 C.ar    1  UNL1        0.0000
     14 C          64.1387   83.1223   11.5541 C.ar    1  UNL1        0.0000
     15 C          63.0385   83.8554   12.2627 C.ar    1  UNL1        0.0000
     16 C          62.1712   84.8183   11.5074 C.ar    1  UNL1        0.0000
     17 C          61.6131   90.5705   12.0345 C.3     1  UNL1        0.1852
     18 C          63.0275   90.8931   12.4158 C.2     1  UNL1        0.3563
     19 N          63.7963   91.9235   11.6428 N.2     1  UNL1       -0.0039
     20 C          65.2106   92.2461   12.0242 C.2     1  UNL1        0.3159
     21 C          65.8563   91.5385   13.1785 C.3     1  UNL1        0.2333
     22 C          65.0876   90.5082   13.9514 C.2     1  UNL1        0.3644
     23 O          65.7332   89.8005   15.1057 O.2     1  UNL1       -0.2422
     24 N          63.6731   90.1855   13.5701 N.am    1  UNL1        0.0288
     25 N          65.9794   93.2765   11.2512 N.pl3   1  UNL1       -0.1888
     26 C          66.9586   92.8482   10.1987 C.3     1  UNL1        0.2343
     27 C          67.7274   93.8784    9.4257 C.3     1  UNL1        0.1929
     28 O          67.5169   95.3370    9.7053 O.3     1  UNL1       -0.3449
     29 C          66.5378   95.7653   10.7578 C.3     1  UNL1        0.1929
     30 C          65.7690   94.7351   11.5307 C.3     1  UNL1        0.2343
@<TRIPOS>BOND
     1     1     2    1
     2     2     3   ar
     3     3    17    1
     4    17    18    1
     5    18    19    1
     6    19    20    2
     7    20    25    1
     8    25    26    1
     9    26    27    1
    10    27    28    1
    11    28    29    1
    12    29    30    1
    13    20    21    1
    14    21    22    1
    15    22    23    2
    16    22    24    1
    17     3     4   ar
    18     4     5   ar
    19     5     6   ar
    20     6     7   ar
    21     7     8   ar
    22     8     9   ar
    23     9    11    1
    24    11    12   ar
    25    12    13   ar
    26    13    14   ar
    27    14    15   ar
    28    15    16   ar
    29     9    10   ar
    30    10     2   ar
    31    24    18    2
    32    10     5   ar
    33    30    25    1
    34    16    11   ar
