@<TRIPOS>MOLECULE
*****
 33 35 0 0 0
SMALL
GASTEIGER

@<TRIPOS>ATOM
      1 C          64.6751   85.6252   14.6996 C.2     1  UNL1        0.2015
      2 O          66.1580   85.4190   14.7914 O.2     1  UNL1       -0.2864
      3 C          63.9908   86.5774   15.6351 C.ar    1  UNL1        0.0612
      4 C          63.1741   86.2002   16.8353 C.ar    1  UNL1        0.1037
      5 N          62.6817   87.4636   17.4765 N.ar    1  UNL1       -0.2269
      6 C          63.1940   88.6217   16.6725 C.ar    1  UNL1        0.1407
      7 N          63.0284   90.1042   16.8297 N.ar    1  UNL1       -0.3369
      8 C          63.6718   91.0389   15.8488 C.ar    1  UNL1        0.0818
      9 C          64.4809   90.4911   14.7107 C.ar    1  UNL1        0.0588
     10 C          64.6466   89.0086   14.5535 C.ar    1  UNL1        0.0129
     11 C          64.0032   88.0739   15.5344 C.ar    1  UNL1        0.0392
     12 H          62.4973   90.4637   17.5767 H       1  UNL1        0.1674
     13 C          65.1244   91.4259   13.7298 C.1     1  UNL1       -0.0604
     14 C          65.7678   92.3607   12.7488 C.1     1  UNL1       -0.0539
     15 C          66.4113   93.2955   11.7679 C.3     1  UNL1        0.2182
     16 O          67.5220   92.8083   10.8854 O.3     1  UNL1       -0.3374
     17 C          67.7019   93.3915    9.5152 C.3     1  UNL1        0.1755
     18 C          62.4757   84.8680   11.4840 C.ar    1  UNL1        0.0920
     19 C          62.2791   83.3869   11.6174 C.ar    1  UNL1        0.0204
     20 C          62.8811   82.6519   12.7782 C.ar    1  UNL1        0.0312
     21 C          63.6798   83.3979   13.8056 C.ar    1  UNL1        0.1454
     22 F          64.2818   82.6630   14.9664 F       1  UNL1       -0.2040
     23 C          63.8764   84.8790   13.6722 C.ar    1  UNL1        0.0951
     24 C          63.2744   85.6140   12.5114 C.ar    1  UNL1        0.1598
     25 F          63.4711   87.0951   12.3781 F       1  UNL1       -0.2026
     26 N          61.8737   85.6029   10.3233 N.pl3   1  UNL1       -0.2166
     27 H          61.6555   85.1192    9.4940 H       1  UNL1        0.1734
     28 S          61.6041   87.0749   10.4259 S.O2    1  UNL1        0.0540
     29 O          60.6104   86.8167   11.5194 O.2     1  UNL1       -0.1545
     30 O          62.5979   87.3331    9.3324 O.2     1  UNL1       -0.1545
     31 C          61.3347   88.5469   10.5285 C.3     1  UNL1        0.1724
     32 C          62.6944   90.6899   11.0847 C.3     1  UNL1        0.0019
     33 C          62.4086   89.5325   10.1744 C.3     1  UNL1        0.0273
@<TRIPOS>BOND
     1    32    33    1
     2    33    31    1
     3    31    28    1
     4    28    29    2
     5    28    30    2
     6    28    26    1
     7    26    18    1
     8    18    19   ar
     9    19    20   ar
    10    20    21   ar
    11    21    22    1
    12    21    23   ar
    13    23     1    1
    14     1     2    2
    15     1     3    1
    16     3     4   ar
    17     4     5   ar
    18     5     6   ar
    19     6     7   ar
    20     7     8   ar
    21     8     9   ar
    22     9    13    1
    23    13    14    3
    24    14    15    1
    25    15    16    1
    26    16    17    1
    27     9    10   ar
    28    10    11   ar
    29    23    24   ar
    30    24    25    1
    31    24    18   ar
    32    11     3   ar
    33    11     6    1
    34    26    27    1
    35     7    12    1
@<TRIPOS>MOLECULE
*****
 33 35 0 0 0
SMALL
GASTEIGER

@<TRIPOS>ATOM
      1 C          64.5580   85.6056   14.5338 C.2     1  UNL1        0.2015
      2 O          65.9945   85.1980   14.6756 O.2     1  UNL1       -0.2864
      3 C          63.9315   86.5121   15.5515 C.ar    1  UNL1        0.0612
      4 C          63.1728   86.0780   16.7705 C.ar    1  UNL1        0.1037
      5 N          62.7262   87.3095   17.5013 N.ar    1  UNL1       -0.2269
      6 C          63.2088   88.5046   16.7340 C.ar    1  UNL1        0.1407
      7 N          63.0662   89.9779   16.9769 N.ar    1  UNL1       -0.3369
      8 C          63.6685   90.9583   16.0147 C.ar    1  UNL1        0.0818
      9 C          64.4135   90.4655   14.8096 C.ar    1  UNL1        0.0588
     10 C          64.5561   88.9922   14.5668 C.ar    1  UNL1        0.0129
     11 C          63.9538   88.0117   15.5289 C.ar    1  UNL1        0.0392
     12 H          62.5773   90.3013   17.7678 H       1  UNL1        0.1674
     13 C          65.0159   91.4460   13.8474 C.1     1  UNL1       -0.0604
     14 C          65.6182   92.4266   12.8853 C.1     1  UNL1       -0.0539
     15 C          66.2205   93.4071   11.9231 C.3     1  UNL1        0.2182
     16 O          67.5208   93.0908   11.2455 O.3     1  UNL1       -0.3374
     17 C          67.5719   92.9396    9.7540 C.3     1  UNL1        0.1755
     18 C          62.4189   85.5740   11.1910 C.ar    1  UNL1        0.0920
     19 C          62.1276   84.1089   11.0548 C.ar    1  UNL1        0.0204
     20 C          62.6464   83.1427   12.0782 C.ar    1  UNL1        0.0312
     21 C          63.4565   83.6415   13.2378 C.ar    1  UNL1        0.1454
     22 F          63.9753   82.6753   14.2612 F       1  UNL1       -0.2040
     23 C          63.7478   85.1066   13.3741 C.ar    1  UNL1        0.0951
     24 C          63.2290   86.0728   12.3507 C.ar    1  UNL1        0.1598
     25 F          63.5204   87.5380   12.4870 F       1  UNL1       -0.2026
     26 N          61.9002   86.5402   10.1676 N.pl3   1  UNL1       -0.2166
     27 H          61.7743   87.4875   10.4043 H       1  UNL1        0.1734
     28 S          61.5731   86.0630    8.7837 S.O2    1  UNL1        0.0540
     29 O          63.0338   85.8629    8.5075 O.2     1  UNL1       -0.1545
     30 O          60.1124   86.2630    9.0599 O.2     1  UNL1       -0.1545
     31 C          61.2459   85.5858    7.3998 C.3     1  UNL1        0.1724
     32 C          61.9453   84.3026    5.2517 C.3     1  UNL1        0.0019
     33 C          62.1662   84.6313    6.6984 C.3     1  UNL1        0.0273
@<TRIPOS>BOND
     1    32    33    1
     2    33    31    1
     3    31    28    1
     4    28    29    2
     5    28    30    2
     6    28    26    1
     7    26    18    1
     8    18    19   ar
     9    19    20   ar
    10    20    21   ar
    11    21    22    1
    12    21    23   ar
    13    23     1    1
    14     1     2    2
    15     1     3    1
    16     3     4   ar
    17     4     5   ar
    18     5     6   ar
    19     6     7   ar
    20     7     8   ar
    21     8     9   ar
    22     9    13    1
    23    13    14    3
    24    14    15    1
    25    15    16    1
    26    16    17    1
    27     9    10   ar
    28    10    11   ar
    29    23    24   ar
    30    24    25    1
    31    24    18   ar
    32    11     3   ar
    33    11     6    1
    34    26    27    1
    35     7    12    1
@<TRIPOS>MOLECULE
*****
 33 35 0 0 0
SMALL
GASTEIGER

@<TRIPOS>ATOM
      1 C          61.3943   89.2727   11.9882 C.2     1  UNL1        0.2015
      2 O          60.1942   89.6973   12.7816 O.2     1  UNL1       -0.2864
      3 C          61.3388   88.0286   11.1521 C.ar    1  UNL1        0.0612
      4 C          61.8358   86.6721   11.5557 C.ar    1  UNL1        0.1037
      5 N          61.5807   85.7278   10.4186 N.ar    1  UNL1       -0.2269
      6 C          60.9261   86.5006    9.3121 C.ar    1  UNL1        0.1407
      7 N          60.4469   86.0932    7.9504 N.ar    1  UNL1       -0.3369
      8 C          59.8182   87.1079    7.0420 C.ar    1  UNL1        0.0818
      9 C          59.6687   88.5299    7.4954 C.ar    1  UNL1        0.0588
     10 C          60.1479   88.9373    8.8571 C.ar    1  UNL1        0.0129
     11 C          60.7766   87.9226    9.7655 C.ar    1  UNL1        0.0392
     12 H          60.5451   85.1599    7.6528 H       1  UNL1        0.1674
     13 C          59.0399   89.5445    6.5869 C.1     1  UNL1       -0.0604
     14 C          58.4112   90.5591    5.6785 C.1     1  UNL1       -0.0539
     15 C          57.7824   91.5738    4.7701 C.3     1  UNL1        0.2182
     16 O          58.6176   92.6699    4.1778 O.3     1  UNL1       -0.3374
     17 C          60.0475   92.4071    3.8085 C.3     1  UNL1        0.1755
     18 C          64.7790   90.8827   13.2929 C.ar    1  UNL1        0.0920
     19 C          65.1611   91.7313   12.1166 C.ar    1  UNL1        0.0204
     20 C          64.2876   91.7604   10.8975 C.ar    1  UNL1        0.0312
     21 C          63.0320   90.9409   10.8547 C.ar    1  UNL1        0.1454
     22 F          62.1586   90.9700    9.6356 F       1  UNL1       -0.2040
     23 C          62.6499   90.0923   12.0310 C.ar    1  UNL1        0.0951
     24 C          63.5234   90.0632   13.2501 C.ar    1  UNL1        0.1598
     25 F          63.1412   89.2145   14.4264 F       1  UNL1       -0.2026
     26 N          65.6524   90.8536   14.5120 N.pl3   1  UNL1       -0.2166
     27 H          65.7095   90.0359   15.0573 H       1  UNL1        0.1734
     28 S          66.4390   92.0704   14.9003 S.O2    1  UNL1        0.0540
     29 O          67.6343   91.5297   14.1732 O.2     1  UNL1       -0.1545
     30 O          65.2436   92.6111   15.6274 O.2     1  UNL1       -0.1545
     31 C          67.2254   93.2872   15.2886 C.3     1  UNL1        0.1724
     32 C          69.4451   94.3570   16.1126 C.3     1  UNL1        0.0019
     33 C          68.6132   93.1393   15.8385 C.3     1  UNL1        0.0273
@<TRIPOS>BOND
     1    32    33    1
     2    33    31    1
     3    31    28    1
     4    28    29    2
     5    28    30    2
     6    28    26    1
     7    26    18    1
     8    18    19   ar
     9    19    20   ar
    10    20    21   ar
    11    21    22    1
    12    21    23   ar
    13    23     1    1
    14     1     2    2
    15     1     3    1
    16     3     4   ar
    17     4     5   ar
    18     5     6   ar
    19     6     7   ar
    20     7     8   ar
    21     8     9   ar
    22     9    13    1
    23    13    14    3
    24    14    15    1
    25    15    16    1
    26    16    17    1
    27     9    10   ar
    28    10    11   ar
    29    23    24   ar
    30    24    25    1
    31    24    18   ar
    32    11     3   ar
    33    11     6    1
    34    26    27    1
    35     7    12    1
@<TRIPOS>MOLECULE
*****
 33 35 0 0 0
SMALL
GASTEIGER

@<TRIPOS>ATOM
      1 C          62.9769   90.2621   12.8936 C.2     1  UNL1        0.2015
      2 O          62.4112   89.9767   14.2531 O.2     1  UNL1       -0.2864
      3 C          62.2647   89.7734   11.6672 C.ar    1  UNL1        0.0612
      4 C          61.5462   90.6279   10.6654 C.ar    1  UNL1        0.1037
      5 N          60.9836   89.7269    9.6064 N.ar    1  UNL1       -0.2269
      6 C          61.3543   88.3155    9.9536 C.ar    1  UNL1        0.1407
      7 N          61.0731   87.0079    9.2746 N.ar    1  UNL1       -0.3369
      8 C          61.5838   85.7290    9.8692 C.ar    1  UNL1        0.0818
      9 C          62.3756   85.7578   11.1429 C.ar    1  UNL1        0.0588
     10 C          62.6568   87.0653   11.8219 C.ar    1  UNL1        0.0129
     11 C          62.1461   88.3442   11.2273 C.ar    1  UNL1        0.0392
     12 H          60.5534   86.9891    8.4387 H       1  UNL1        0.1674
     13 C          62.8863   84.4788   11.7375 C.1     1  UNL1       -0.0604
     14 C          63.3970   83.1999   12.3321 C.1     1  UNL1       -0.0539
     15 C          63.9077   81.9209   12.9267 C.3     1  UNL1        0.2182
     16 O          63.2334   81.3314   14.1299 O.3     1  UNL1       -0.3374
     17 C          61.7509   81.1028   14.1220 C.3     1  UNL1        0.1755
     18 C          65.8467   92.5246   11.3459 C.ar    1  UNL1        0.0920
     19 C          66.8104   92.5847   12.4938 C.ar    1  UNL1        0.0204
     20 C          66.4963   91.8705   13.7750 C.ar    1  UNL1        0.0312
     21 C          65.2185   91.0964   13.9083 C.ar    1  UNL1        0.1454
     22 F          64.9043   90.3822   15.1894 F       1  UNL1       -0.2040
     23 C          64.2548   91.0363   12.7603 C.ar    1  UNL1        0.0951
     24 C          64.5689   91.7505   11.4792 C.ar    1  UNL1        0.1598
     25 F          63.6052   91.6904   10.3313 F       1  UNL1       -0.2026
     26 N          66.1609   93.2388   10.0648 N.pl3   1  UNL1       -0.2166
     27 H          66.0282   92.7834    9.2021 H       1  UNL1        0.1734
     28 S          66.6772   94.6467   10.0981 S.O2    1  UNL1        0.0540
     29 O          68.0249   94.1630    9.6513 O.2     1  UNL1       -0.1545
     30 O          65.3295   95.1304   10.5450 O.2     1  UNL1       -0.1545
     31 C          67.1935   96.0546   10.1315 C.3     1  UNL1        0.1724
     32 C          66.3536   96.5452    7.7223 C.3     1  UNL1        0.0019
     33 C          67.2755   96.8536    8.8646 C.3     1  UNL1        0.0273
@<TRIPOS>BOND
     1    32    33    1
     2    33    31    1
     3    31    28    1
     4    28    29    2
     5    28    30    2
     6    28    26    1
     7    26    18    1
     8    18    19   ar
     9    19    20   ar
    10    20    21   ar
    11    21    22    1
    12    21    23   ar
    13    23     1    1
    14     1     2    2
    15     1     3    1
    16     3     4   ar
    17     4     5   ar
    18     5     6   ar
    19     6     7   ar
    20     7     8   ar
    21     8     9   ar
    22     9    13    1
    23    13    14    3
    24    14    15    1
    25    15    16    1
    26    16    17    1
    27     9    10   ar
    28    10    11   ar
    29    23    24   ar
    30    24    25    1
    31    24    18   ar
    32    11     3   ar
    33    11     6    1
    34    26    27    1
    35     7    12    1
@<TRIPOS>MOLECULE
*****
 33 35 0 0 0
SMALL
GASTEIGER

@<TRIPOS>ATOM
      1 C          62.6755   85.5942    9.2194 C.2     1  UNL1        0.2015
      2 O          63.5176   85.4497    7.9865 O.2     1  UNL1       -0.2864
      3 C          61.5407   86.5749    9.2419 C.ar    1  UNL1        0.0612
      4 C          60.1478   86.3230    8.7458 C.ar    1  UNL1        0.1037
      5 N          59.3459   87.5721    8.9619 N.ar    1  UNL1       -0.2269
      6 C          60.2432   88.5959    9.5916 C.ar    1  UNL1        0.1407
      7 N          60.0003   90.0098   10.0297 N.ar    1  UNL1       -0.3369
      8 C          61.1140   90.8073   10.6409 C.ar    1  UNL1        0.0818
      9 C          62.4705   90.1910   10.8140 C.ar    1  UNL1        0.0588
     10 C          62.7134   88.7771   10.3759 C.ar    1  UNL1        0.0129
     11 C          61.5997   87.9796    9.7647 C.ar    1  UNL1        0.0392
     12 H          59.1100   90.4143    9.9161 H       1  UNL1        0.1674
     13 C          63.5842   90.9886   11.4253 C.1     1  UNL1       -0.0604
     14 C          64.6978   91.7862   12.0366 C.1     1  UNL1       -0.0539
     15 C          65.8115   92.5838   12.6479 C.3     1  UNL1        0.2182
     16 O          65.7079   93.0491   14.0701 O.3     1  UNL1       -0.3374
     17 C          66.9519   93.2956   14.8710 C.3     1  UNL1        0.1755
     18 C          62.6306   84.2628   12.9578 C.ar    1  UNL1        0.0920
     19 C          63.5538   83.0854   12.8505 C.ar    1  UNL1        0.0204
     20 C          64.1842   82.7443   11.5328 C.ar    1  UNL1        0.0312
     21 C          63.8915   83.5805   10.3225 C.ar    1  UNL1        0.1454
     22 F          64.5219   83.2394    9.0048 F       1  UNL1       -0.2040
     23 C          62.9683   84.7579   10.4298 C.ar    1  UNL1        0.0951
     24 C          62.3379   85.0990   11.7474 C.ar    1  UNL1        0.1598
     25 F          61.4147   86.2764   11.8546 F       1  UNL1       -0.2026
     26 N          62.0002   84.6039   14.2754 N.pl3   1  UNL1       -0.2166
     27 H          61.0396   84.4421   14.4181 H       1  UNL1        0.1734
     28 S          62.8333   85.1916   15.3757 S.O2    1  UNL1        0.0540
     29 O          62.1871   84.2632   16.3608 O.2     1  UNL1       -0.1545
     30 O          63.4795   86.1199   14.3905 O.2     1  UNL1       -0.1545
     31 C          63.6664   85.7793   16.4758 C.3     1  UNL1        0.1724
     32 C          63.0090   88.2032   17.1412 C.3     1  UNL1        0.0019
     33 C          63.0510   86.7366   17.4530 C.3     1  UNL1        0.0273
@<TRIPOS>BOND
     1    32    33    1
     2    33    31    1
     3    31    28    1
     4    28    29    2
     5    28    30    2
     6    28    26    1
     7    26    18    1
     8    18    19   ar
     9    19    20   ar
    10    20    21   ar
    11    21    22    1
    12    21    23   ar
    13    23     1    1
    14     1     2    2
    15     1     3    1
    16     3     4   ar
    17     4     5   ar
    18     5     6   ar
    19     6     7   ar
    20     7     8   ar
    21     8     9   ar
    22     9    13    1
    23    13    14    3
    24    14    15    1
    25    15    16    1
    26    16    17    1
    27     9    10   ar
    28    10    11   ar
    29    23    24   ar
    30    24    25    1
    31    24    18   ar
    32    11     3   ar
    33    11     6    1
    34    26    27    1
    35     7    12    1
@<TRIPOS>MOLECULE
*****
 33 35 0 0 0
SMALL
GASTEIGER

@<TRIPOS>ATOM
      1 C          63.7711   83.6271   12.0442 C.2     1  UNL1        0.2015
      2 O          64.8613   82.6479   11.7244 O.2     1  UNL1       -0.2864
      3 C          63.3250   83.8157   13.4639 C.ar    1  UNL1        0.0612
      4 C          62.6703   82.7786   14.3275 C.ar    1  UNL1        0.1037
      5 N          62.3960   83.3965   15.6665 N.ar    1  UNL1       -0.2269
      6 C          62.8812   84.8154   15.6305 C.ar    1  UNL1        0.1407
      7 N          62.8743   85.9050   16.6613 N.ar    1  UNL1       -0.3369
      8 C          63.4417   87.2536   16.3309 C.ar    1  UNL1        0.0818
      9 C          64.0159   87.5127   14.9696 C.ar    1  UNL1        0.0588
     10 C          64.0227   86.4231   13.9387 C.ar    1  UNL1        0.0129
     11 C          63.4554   85.0745   14.2691 C.ar    1  UNL1        0.0392
     12 H          62.4975   85.7349   17.5548 H       1  UNL1        0.1674
     13 C          64.5832   88.8614   14.6392 C.1     1  UNL1       -0.0604
     14 C          65.1506   90.2101   14.3087 C.1     1  UNL1       -0.0539
     15 C          65.7179   91.5588   13.9783 C.3     1  UNL1        0.2182
     16 O          65.0366   92.4317   12.9665 O.3     1  UNL1       -0.3374
     17 C          65.8404   93.3952   12.1446 C.3     1  UNL1        0.1755
     18 C          61.3690   86.1628   10.1598 C.ar    1  UNL1        0.0920
     19 C          61.8384   85.9994    8.7446 C.ar    1  UNL1        0.0204
     20 C          62.9521   85.0452    8.4292 C.ar    1  UNL1        0.0312
     21 C          63.5963   84.2545    9.5290 C.ar    1  UNL1        0.1454
     22 F          64.7099   83.3004    9.2136 F       1  UNL1       -0.2040
     23 C          63.1268   84.4179   10.9443 C.ar    1  UNL1        0.0951
     24 C          62.0132   85.3720   11.2596 C.ar    1  UNL1        0.1598
     25 F          61.5438   85.5353   12.6749 F       1  UNL1       -0.2026
     26 N          60.2553   87.1169   10.4752 N.pl3   1  UNL1       -0.2166
     27 H          59.3553   86.7732   10.6777 H       1  UNL1        0.1734
     28 S          60.5131   88.5945   10.4820 S.O2    1  UNL1        0.0540
     29 O          61.1149   88.4832   11.8514 O.2     1  UNL1       -0.1545
     30 O          59.9113   88.7058    9.1125 O.2     1  UNL1       -0.1545
     31 C          60.7708   90.0722   10.4887 C.3     1  UNL1        0.1724
     32 C          63.0845   91.2281   10.2414 C.3     1  UNL1        0.0019
     33 C          62.0262   90.6117   11.1075 C.3     1  UNL1        0.0273
@<TRIPOS>BOND
     1    32    33    1
     2    33    31    1
     3    31    28    1
     4    28    29    2
     5    28    30    2
     6    28    26    1
     7    26    18    1
     8    18    19   ar
     9    19    20   ar
    10    20    21   ar
    11    21    22    1
    12    21    23   ar
    13    23     1    1
    14     1     2    2
    15     1     3    1
    16     3     4   ar
    17     4     5   ar
    18     5     6   ar
    19     6     7   ar
    20     7     8   ar
    21     8     9   ar
    22     9    13    1
    23    13    14    3
    24    14    15    1
    25    15    16    1
    26    16    17    1
    27     9    10   ar
    28    10    11   ar
    29    23    24   ar
    30    24    25    1
    31    24    18   ar
    32    11     3   ar
    33    11     6    1
    34    26    27    1
    35     7    12    1
@<TRIPOS>MOLECULE
*****
 33 35 0 0 0
SMALL
GASTEIGER

@<TRIPOS>ATOM
      1 C          65.1801   90.9552   13.9010 C.2     1  UNL1        0.2015
      2 O          66.6377   91.2809   14.0395 O.2     1  UNL1       -0.2864
      3 C          64.4160   90.4210   15.0760 C.ar    1  UNL1        0.0612
      4 C          63.8595   91.2320   16.2084 C.ar    1  UNL1        0.1037
      5 N          63.1737   90.2941   17.1571 N.ar    1  UNL1       -0.2269
      6 C          63.3064   88.9033   16.6109 C.ar    1  UNL1        0.1407
      7 N          62.8272   87.5757   17.1187 N.ar    1  UNL1       -0.3369
      8 C          63.1159   86.3265   16.3402 C.ar    1  UNL1        0.0818
      9 C          63.8837   86.4049   15.0539 C.ar    1  UNL1        0.0588
     10 C          64.3628   87.7325   14.5462 C.ar    1  UNL1        0.0129
     11 C          64.0741   88.9818   15.3247 C.ar    1  UNL1        0.0392
     12 H          62.3233   87.5243   17.9629 H       1  UNL1        0.1674
     13 C          64.1723   85.1556   14.2754 C.1     1  UNL1       -0.0604
     14 C          64.4609   83.9064   13.4969 C.1     1  UNL1       -0.0539
     15 C          64.7496   82.6571   12.7184 C.3     1  UNL1        0.2182
     16 O          63.8521   81.4632   12.8564 O.3     1  UNL1       -0.3374
     17 C          62.4558   81.6309   13.3783 C.3     1  UNL1        0.1755
     18 C          62.4625   90.7290   11.0176 C.ar    1  UNL1        0.0920
     19 C          63.0997   91.5810    9.9601 C.ar    1  UNL1        0.0204
     20 C          64.4302   92.2244   10.2163 C.ar    1  UNL1        0.0312
     21 C          65.1237   92.0159   11.5298 C.ar    1  UNL1        0.1454
     22 F          66.4543   92.6593   11.7860 F       1  UNL1       -0.2040
     23 C          64.4866   91.1639   12.5873 C.ar    1  UNL1        0.0951
     24 C          63.1561   90.5204   12.3311 C.ar    1  UNL1        0.1598
     25 F          62.5190   89.6684   13.3887 F       1  UNL1       -0.2026
     26 N          61.1320   90.0856   10.7614 N.pl3   1  UNL1       -0.2166
     27 H          60.3448   90.6436   10.5663 H       1  UNL1        0.1734
     28 S          61.0009   88.5919   10.8025 S.O2    1  UNL1        0.0540
     29 O          62.0163   88.4726    9.7049 O.2     1  UNL1       -0.1545
     30 O          59.9855   88.7112   11.9001 O.2     1  UNL1       -0.1545
     31 C          60.8697   87.0983   10.8436 C.3     1  UNL1        0.1724
     32 C          62.4239   85.0245   10.6582 C.3     1  UNL1        0.0019
     33 C          61.9900   86.2617   11.3869 C.3     1  UNL1        0.0273
@<TRIPOS>BOND
     1    32    33    1
     2    33    31    1
     3    31    28    1
     4    28    29    2
     5    28    30    2
     6    28    26    1
     7    26    18    1
     8    18    19   ar
     9    19    20   ar
    10    20    21   ar
    11    21    22    1
    12    21    23   ar
    13    23     1    1
    14     1     2    2
    15     1     3    1
    16     3     4   ar
    17     4     5   ar
    18     5     6   ar
    19     6     7   ar
    20     7     8   ar
    21     8     9   ar
    22     9    13    1
    23    13    14    3
    24    14    15    1
    25    15    16    1
    26    16    17    1
    27     9    10   ar
    28    10    11   ar
    29    23    24   ar
    30    24    25    1
    31    24    18   ar
    32    11     3   ar
    33    11     6    1
    34    26    27    1
    35     7    12    1
@<TRIPOS>MOLECULE
*****
 33 35 0 0 0
SMALL
GASTEIGER

@<TRIPOS>ATOM
      1 C          62.3568   89.7876   12.9770 C.2     1  UNL1        0.2015
      2 O          61.2419   89.7262   13.9785 O.2     1  UNL1       -0.2864
      3 C          62.1419   89.2769   11.5831 C.ar    1  UNL1        0.0612
      4 C          61.7658   90.1036   10.3894 C.ar    1  UNL1        0.1037
      5 N          61.6569   89.1874    9.2067 N.ar    1  UNL1       -0.2269
      6 C          61.9657   87.7944    9.6695 C.ar    1  UNL1        0.1407
      7 N          62.0126   86.4828    8.9434 N.ar    1  UNL1       -0.3369
      8 C          62.3593   85.2264    9.6859 C.ar    1  UNL1        0.0818
      9 C          62.6590   85.2817   11.1546 C.ar    1  UNL1        0.0588
     10 C          62.6121   86.5933   11.8808 C.ar    1  UNL1        0.0129
     11 C          62.2654   87.8497   11.1382 C.ar    1  UNL1        0.0392
     12 H          61.8158   86.4465    7.9794 H       1  UNL1        0.1674
     13 C          63.0057   84.0253   11.8971 C.1     1  UNL1       -0.0604
     14 C          63.3524   82.7690   12.6396 C.1     1  UNL1       -0.0539
     15 C          63.6991   81.5125   13.3821 C.3     1  UNL1        0.2182
     16 O          62.7377   80.9432   14.3829 O.3     1  UNL1       -0.3374
     17 C          61.2613   81.0089   14.1259 C.3     1  UNL1        0.1755
     18 C          65.5163   92.1857   13.1072 C.ar    1  UNL1        0.0920
     19 C          66.3465   91.5042   14.1543 C.ar    1  UNL1        0.0204
     20 C          65.8468   90.2505   14.8089 C.ar    1  UNL1        0.0312
     21 C          64.5169   89.6783   14.4165 C.ar    1  UNL1        0.1454
     22 F          64.0173   88.4246   15.0711 F       1  UNL1       -0.2040
     23 C          63.6868   90.3598   13.3695 C.ar    1  UNL1        0.0951
     24 C          64.1864   91.6135   12.7148 C.ar    1  UNL1        0.1598
     25 F          63.3562   92.2950   11.6678 F       1  UNL1       -0.2026
     26 N          66.0160   93.4394   12.4526 N.pl3   1  UNL1       -0.2166
     27 H          65.9635   94.2987   12.9302 H       1  UNL1        0.1734
     28 S          66.5957   93.3839   11.0703 S.O2    1  UNL1        0.0540
     29 O          65.5100   94.2946   10.5784 O.2     1  UNL1       -0.1545
     30 O          67.6814   92.4733   11.5621 O.2     1  UNL1       -0.1545
     31 C          67.1754   93.3283    9.6880 C.3     1  UNL1        0.1724
     32 C          68.9502   91.9928    8.3401 C.3     1  UNL1        0.0019
     33 C          68.5964   92.8916    9.4877 C.3     1  UNL1        0.0273
@<TRIPOS>BOND
     1    32    33    1
     2    33    31    1
     3    31    28    1
     4    28    29    2
     5    28    30    2
     6    28    26    1
     7    26    18    1
     8    18    19   ar
     9    19    20   ar
    10    20    21   ar
    11    21    22    1
    12    21    23   ar
    13    23     1    1
    14     1     2    2
    15     1     3    1
    16     3     4   ar
    17     4     5   ar
    18     5     6   ar
    19     6     7   ar
    20     7     8   ar
    21     8     9   ar
    22     9    13    1
    23    13    14    3
    24    14    15    1
    25    15    16    1
    26    16    17    1
    27     9    10   ar
    28    10    11   ar
    29    23    24   ar
    30    24    25    1
    31    24    18   ar
    32    11     3   ar
    33    11     6    1
    34    26    27    1
    35     7    12    1
@<TRIPOS>MOLECULE
*****
 33 35 0 0 0
SMALL
GASTEIGER

@<TRIPOS>ATOM
      1 C          62.7419   90.2080   12.5491 C.2     1  UNL1        0.2015
      2 O          62.7501   89.5654   13.9043 O.2     1  UNL1       -0.2864
      3 C          61.6859   89.8381   11.5500 C.ar    1  UNL1        0.0612
      4 C          60.5923   90.7349   11.0501 C.ar    1  UNL1        0.1037
      5 N          59.7688   89.9575   10.0665 N.ar    1  UNL1       -0.2269
      6 C          60.3534   88.5804    9.9585 C.ar    1  UNL1        0.1407
      7 N          59.9598   87.3840    9.1437 N.ar    1  UNL1       -0.3369
      8 C          60.7512   86.1139    9.2458 C.ar    1  UNL1        0.0818
      9 C          61.9361   86.0401   10.1627 C.ar    1  UNL1        0.0588
     10 C          62.3296   87.2364   10.9774 C.ar    1  UNL1        0.0129
     11 C          61.5383   88.5066   10.8753 C.ar    1  UNL1        0.0392
     12 H          59.1822   87.4325    8.5420 H       1  UNL1        0.1674
     13 C          62.7275   84.7699   10.2647 C.1     1  UNL1       -0.0604
     14 C          63.5188   83.4998   10.3668 C.1     1  UNL1       -0.0539
     15 C          64.3102   82.2295   10.4688 C.3     1  UNL1        0.2182
     16 O          64.8787   81.8042   11.7901 O.3     1  UNL1       -0.3374
     17 C          63.9850   81.6905   12.9894 C.3     1  UNL1        0.1755
     18 C          65.6314   92.9033   12.9186 C.ar    1  UNL1        0.0920
     19 C          65.8853   93.2457   11.4805 C.ar    1  UNL1        0.0204
     20 C          65.0914   92.5755   10.3985 C.ar    1  UNL1        0.0312
     21 C          64.0436   91.5630   10.7547 C.ar    1  UNL1        0.1454
     22 F          63.2497   90.8928    9.6727 F       1  UNL1       -0.2040
     23 C          63.7897   91.2206   12.1928 C.ar    1  UNL1        0.0951
     24 C          64.5836   91.8908   13.2748 C.ar    1  UNL1        0.1598
     25 F          64.3297   91.5483   14.7130 F       1  UNL1       -0.2026
     26 N          66.4253   93.5734   14.0006 N.pl3   1  UNL1       -0.2166
     27 H          66.3377   94.5431   14.1467 H       1  UNL1        0.1734
     28 S          67.3527   92.7662   14.8598 S.O2    1  UNL1        0.0540
     29 O          68.2177   92.4894   13.6661 O.2     1  UNL1       -0.1545
     30 O          66.4876   93.0430   16.0536 O.2     1  UNL1       -0.1545
     31 C          68.2800   91.9590   15.7191 C.3     1  UNL1        0.1724
     32 C          69.6937   94.0841   16.2046 C.3     1  UNL1        0.0019
     33 C          69.4917   92.6028   16.3254 C.3     1  UNL1        0.0273
@<TRIPOS>BOND
     1    32    33    1
     2    33    31    1
     3    31    28    1
     4    28    29    2
     5    28    30    2
     6    28    26    1
     7    26    18    1
     8    18    19   ar
     9    19    20   ar
    10    20    21   ar
    11    21    22    1
    12    21    23   ar
    13    23     1    1
    14     1     2    2
    15     1     3    1
    16     3     4   ar
    17     4     5   ar
    18     5     6   ar
    19     6     7   ar
    20     7     8   ar
    21     8     9   ar
    22     9    13    1
    23    13    14    3
    24    14    15    1
    25    15    16    1
    26    16    17    1
    27     9    10   ar
    28    10    11   ar
    29    23    24   ar
    30    24    25    1
    31    24    18   ar
    32    11     3   ar
    33    11     6    1
    34    26    27    1
    35     7    12    1
