@<TRIPOS>MOLECULE
*****
 58 64 0 0 0
SMALL
GASTEIGER

@<TRIPOS>ATOM
      1 N          63.7739   86.1086   15.9989 N.3     1  UNL1       -0.1862
      2 C          63.9045   84.6332   16.2354 C.3     1  UNL1        0.1775
      3 C          63.7838   83.6759   15.0868 C.2     1  UNL1        0.2452
      4 O          63.9144   82.2004   15.3233 O.2     1  UNL1       -0.2732
      5 N          63.5323   84.1941   13.7019 N.am    1  UNL1       -0.2541
      6 C          63.4116   83.2369   12.5533 C.3     1  UNL1        0.1577
      7 C          63.1601   83.7551   11.1684 C.2     1  UNL1        0.2445
      8 O          63.0393   82.7979   10.0198 O.2     1  UNL1       -0.2731
      9 N          63.0294   85.2307   10.9319 N.am    1  UNL1       -0.2705
     10 C          63.1502   86.1879   12.0804 C.3     1  UNL1        0.1359
     11 C          63.4017   85.6696   13.4654 C.3     1  UNL1        0.1908
     12 N          63.5224   86.6268   14.6140 N.am    1  UNL1       -0.1863
     13 C          63.3918   88.1023   14.3775 C.2     1  UNL1        0.3191
     14 O          63.1403   88.6206   12.9925 O.2     1  UNL1       -0.2512
     15 N          63.5125   89.0596   15.5260 N.am    1  UNL1       -0.2836
     16 H          63.6776   88.7194   16.4350 H       1  UNL1        0.1513
     17 C          63.8947   87.0658   17.1475 C.3     1  UNL1        0.1188
     18 C          62.6558   87.0245   19.4308 C.2     1  UNL1       -0.0034
     19 C          62.6902   87.3965   17.9780 C.2     1  UNL1       -0.0071
     20 C          63.5422   81.7615   12.7898 C.3     1  UNL1        0.0556
     21 C          62.3522   80.9652   13.2367 C.ar    1  UNL1       -0.0198
     22 C          61.1254   81.6675   13.7385 C.ar    1  UNL1       -0.0011
     23 C          59.9354   80.8712   14.1854 C.ar    1  UNL1        0.0363
     24 C          59.9720   79.3727   14.1305 C.ar    1  UNL1        0.1337
     25 O          58.7820   78.5765   14.5774 O.3     1  UNL1       -0.5055
     26 C          61.1988   78.6704   13.6286 C.ar    1  UNL1        0.0363
     27 C          62.3889   79.4666   13.1817 C.ar    1  UNL1       -0.0011
     28 H          58.0157   79.0152   14.8909 H       1  UNL1        0.2922
     29 C          62.7780   85.7489    9.5469 C.3     1  UNL1        0.1217
     30 C          62.0922   87.0688    9.3530 C.ar    1  UNL1        0.0135
     31 C          62.4629   88.2402   10.2134 C.ar    1  UNL1       -0.0012
     32 C          61.7772   89.5600   10.0195 C.ar    1  UNL1       -0.0002
     33 C          60.7206   89.7085    8.9652 C.ar    1  UNL1        0.0016
     34 C          60.3499   88.5371    8.1048 C.ar    1  UNL1        0.0214
     35 C          59.3542   88.3833    6.9935 C.ar    1  UNL1        0.0721
     36 C          59.4247   86.9684    6.5005 C.ar    1  UNL1        0.0805
     37 N          60.4638   86.2477    7.3072 N.ar    1  UNL1       -0.3241
     38 C          60.8614   84.8100    7.1500 C.3     1  UNL1        0.1305
     39 C          61.0356   87.2172    8.2986 C.ar    1  UNL1        0.0577
     40 C          58.4473   89.4561    6.4674 C.2     1  UNL1        0.2506
     41 O          56.9998   89.4739    6.8605 O.2     1  UNL1       -0.2699
     42 N          58.9879   90.5112    5.5484 N.am    1  UNL1       -0.2732
     43 C          58.0811   91.5839    5.0223 C.3     1  UNL1        0.1110
     44 C          58.6217   92.6390    4.1033 C.3     1  UNL1        0.0940
     45 N          60.0692   92.6212    3.7103 N.3     1  UNL1       -0.2676
     46 C          60.9760   91.5484    4.2363 C.3     1  UNL1        0.0940
     47 C          60.4354   90.4933    5.1554 C.3     1  UNL1        0.1110
     48 C          60.6098   93.6763    2.7912 C.3     1  UNL1        0.1046
     49 C          61.4597   93.2856    1.6186 C.3     1  UNL1        0.1595
     50 O          61.0171   92.1800    0.7067 O.3     1  UNL1       -0.3496
     51 C          59.7399   92.3131   -0.0685 C.3     1  UNL1        0.1742
     52 C          63.3819   90.5350   15.2896 C.3     1  UNL1        0.1177
     53 C          64.5969   91.3535   14.9674 C.ar    1  UNL1       -0.0025
     54 C          65.0729   91.4631   13.5491 C.ar    1  UNL1       -0.0026
     55 C          66.2879   92.2815   13.2269 C.ar    1  UNL1       -0.0003
     56 C          67.0270   92.9904   14.3229 C.ar    1  UNL1       -0.0000
     57 C          66.5510   92.8808   15.7413 C.ar    1  UNL1       -0.0003
     58 C          65.3360   92.0623   16.0635 C.ar    1  UNL1       -0.0026
@<TRIPOS>BOND
     1    18    19    2
     2    19    17    1
     3    17     1    1
     4     1     2    1
     5     2     3    1
     6     3     4    2
     7     3     5   am
     8     5     6    1
     9     6    20    1
    10    20    21    1
    11    21    22   ar
    12    22    23   ar
    13    23    24   ar
    14    24    25    1
    15    24    26   ar
    16    26    27   ar
    17     6     7    1
    18     7     8    2
    19     7     9   am
    20     9    29    1
    21    29    30    1
    22    30    31   ar
    23    31    32   ar
    24    32    33   ar
    25    33    34   ar
    26    34    35   ar
    27    35    40    1
    28    40    41    2
    29    40    42   am
    30    42    43    1
    31    43    44    1
    32    44    45    1
    33    45    48    1
    34    48    49    1
    35    49    50    1
    36    50    51    1
    37    45    46    1
    38    46    47    1
    39    35    36   ar
    40    36    37   ar
    41    37    38    1
    42    37    39   ar
    43     9    10    1
    44    11    10    1
    45    11    12    1
    46    12    13   am
    47    13    14    2
    48    13    15   am
    49    15    52    1
    50    52    53    1
    51    53    54   ar
    52    54    55   ar
    53    55    56   ar
    54    56    57   ar
    55    57    58   ar
    56    12     1    1
    57    58    53   ar
    58    11     5    1
    59    27    21   ar
    60    39    30   ar
    61    39    34   ar
    62    47    42    1
    63    25    28    1
    64    15    16    1
@<TRIPOS>MOLECULE
*****
 58 64 0 0 0
SMALL
GASTEIGER

@<TRIPOS>ATOM
      1 N          65.3654   89.3641   14.6816 N.3     1  UNL1       -0.1862
      2 C          65.5539   88.1174   15.4940 C.3     1  UNL1        0.1775
      3 C          64.8248   86.8610   15.1199 C.2     1  UNL1        0.2452
      4 O          65.0133   85.6142   15.9324 O.2     1  UNL1       -0.2732
      5 N          63.9073   86.8514   13.9334 N.am    1  UNL1       -0.2541
      6 C          63.1782   85.5950   13.5592 C.3     1  UNL1        0.1577
      7 C          62.2606   85.5854   12.3727 C.2     1  UNL1        0.2445
      8 O          61.5315   84.3290   11.9986 O.2     1  UNL1       -0.2731
      9 N          62.0721   86.8321   11.5602 N.am    1  UNL1       -0.2705
     10 C          62.8012   88.0885   11.9343 C.3     1  UNL1        0.1359
     11 C          63.7188   88.0981   13.1209 C.3     1  UNL1        0.1908
     12 N          64.4479   89.3545   13.4951 N.am    1  UNL1       -0.1863
     13 C          64.2594   90.6012   12.6825 C.2     1  UNL1        0.3191
     14 O          63.3418   90.5916   11.4960 O.2     1  UNL1       -0.2512
     15 N          64.9885   91.8576   13.0567 N.am    1  UNL1       -0.2836
     16 H          65.5907   91.8639   13.8355 H       1  UNL1        0.1513
     17 C          66.0945   90.6205   15.0557 C.3     1  UNL1        0.1188
     18 C          68.1575   92.1807   14.8110 C.2     1  UNL1       -0.0034
     19 C          67.4567   90.8938   14.4903 C.2     1  UNL1       -0.0071
     20 C          63.3666   84.3483   14.3717 C.3     1  UNL1        0.0556
     21 C          63.1670   83.0032   13.7385 C.ar    1  UNL1       -0.0198
     22 C          64.0259   82.5835   12.5826 C.ar    1  UNL1       -0.0011
     23 C          63.8263   81.2383   11.9495 C.ar    1  UNL1        0.0363
     24 C          62.7679   80.3129   12.4723 C.ar    1  UNL1        0.1337
     25 O          62.5683   78.9678   11.8391 O.3     1  UNL1       -0.5055
     26 C          61.9090   80.7326   13.6283 C.ar    1  UNL1        0.0363
     27 C          62.1086   82.0777   14.2614 C.ar    1  UNL1       -0.0011
     28 H          63.1048   78.7057   11.1171 H       1  UNL1        0.2922
     29 C          61.1546   86.8225   10.3736 C.3     1  UNL1        0.1217
     30 C          60.5656   88.1071    9.8705 C.ar    1  UNL1        0.0135
     31 C          60.3897   89.2679   10.8041 C.ar    1  UNL1       -0.0012
     32 C          59.8008   90.5524   10.3010 C.ar    1  UNL1       -0.0002
     33 C          59.3878   90.6761    8.8643 C.ar    1  UNL1        0.0016
     34 C          59.5637   89.5154    7.9307 C.ar    1  UNL1        0.0214
     35 C          59.2516   89.3429    6.4737 C.ar    1  UNL1        0.0721
     36 C          59.6476   87.9517    6.0764 C.ar    1  UNL1        0.0805
     37 N          60.2045   87.2645    7.2877 N.ar    1  UNL1       -0.3241
     38 C          60.7223   85.8578    7.3433 C.3     1  UNL1        0.1305
     39 C          60.1527   88.2308    8.4338 C.ar    1  UNL1        0.0577
     40 C          58.6492   90.3796    5.5723 C.2     1  UNL1        0.2506
     41 O          57.1716   90.6359    5.6065 O.2     1  UNL1       -0.2699
     42 N          59.5243   91.1599    4.6368 N.am    1  UNL1       -0.2732
     43 C          58.9220   92.1966    3.7355 C.3     1  UNL1        0.1110
     44 C          59.7972   92.9770    2.8000 C.3     1  UNL1        0.0940
     45 N          61.2747   92.7207    2.7659 N.3     1  UNL1       -0.2676
     46 C          61.8771   91.6839    3.6673 C.3     1  UNL1        0.0940
     47 C          61.0019   90.9036    4.6028 C.3     1  UNL1        0.1110
     48 C          62.1499   93.5010    1.8304 C.3     1  UNL1        0.1046
     49 C          63.6303   93.5623    2.0639 C.3     1  UNL1        0.1595
     50 O          64.5663   93.7293    0.9038 O.3     1  UNL1       -0.3496
     51 C          64.0199   93.8864   -0.4843 C.3     1  UNL1        0.1742
     52 C          64.8000   93.1043   12.2442 C.3     1  UNL1        0.1177
     53 C          65.8220   93.4916   11.2168 C.ar    1  UNL1       -0.0025
     54 C          66.8223   92.4825   10.7364 C.ar    1  UNL1       -0.0026
     55 C          67.8443   92.8698    9.7090 C.ar    1  UNL1       -0.0003
     56 C          67.8659   94.2663    9.1619 C.ar    1  UNL1       -0.0000
     57 C          66.8655   95.2755    9.6423 C.ar    1  UNL1       -0.0003
     58 C          65.8436   94.8882   10.6698 C.ar    1  UNL1       -0.0026
@<TRIPOS>BOND
     1    18    19    2
     2    19    17    1
     3    17     1    1
     4     1     2    1
     5     2     3    1
     6     3     4    2
     7     3     5   am
     8     5     6    1
     9     6    20    1
    10    20    21    1
    11    21    22   ar
    12    22    23   ar
    13    23    24   ar
    14    24    25    1
    15    24    26   ar
    16    26    27   ar
    17     6     7    1
    18     7     8    2
    19     7     9   am
    20     9    29    1
    21    29    30    1
    22    30    31   ar
    23    31    32   ar
    24    32    33   ar
    25    33    34   ar
    26    34    35   ar
    27    35    40    1
    28    40    41    2
    29    40    42   am
    30    42    43    1
    31    43    44    1
    32    44    45    1
    33    45    48    1
    34    48    49    1
    35    49    50    1
    36    50    51    1
    37    45    46    1
    38    46    47    1
    39    35    36   ar
    40    36    37   ar
    41    37    38    1
    42    37    39   ar
    43     9    10    1
    44    11    10    1
    45    11    12    1
    46    12    13   am
    47    13    14    2
    48    13    15   am
    49    15    52    1
    50    52    53    1
    51    53    54   ar
    52    54    55   ar
    53    55    56   ar
    54    56    57   ar
    55    57    58   ar
    56    12     1    1
    57    58    53   ar
    58    11     5    1
    59    27    21   ar
    60    39    30   ar
    61    39    34   ar
    62    47    42    1
    63    25    28    1
    64    15    16    1
@<TRIPOS>MOLECULE
*****
 58 64 0 0 0
SMALL
GASTEIGER

@<TRIPOS>ATOM
      1 N          63.5257   86.5596   16.0993 N.3     1  UNL1       -0.1862
      2 C          63.3723   85.1039   16.4266 C.3     1  UNL1        0.1775
      3 C          63.0564   84.1199   15.3395 C.2     1  UNL1        0.2452
      4 O          62.9030   82.6640   15.6669 O.2     1  UNL1       -0.2732
      5 N          62.8939   84.5916   13.9249 N.am    1  UNL1       -0.2541
      6 C          62.5780   83.6076   12.8377 C.3     1  UNL1        0.1577
      7 C          62.4154   84.0794   11.4232 C.2     1  UNL1        0.2445
      8 O          62.0995   83.0954   10.3360 O.2     1  UNL1       -0.2731
      9 N          62.5688   85.5352   11.0958 N.am    1  UNL1       -0.2705
     10 C          62.8847   86.5192   12.1829 C.3     1  UNL1        0.1359
     11 C          63.0472   86.0474   13.5976 C.3     1  UNL1        0.1908
     12 N          63.3631   87.0314   14.6847 N.am    1  UNL1       -0.1863
     13 C          63.5165   88.4872   14.3573 C.2     1  UNL1        0.3191
     14 O          63.3540   88.9590   12.9428 O.2     1  UNL1       -0.2512
     15 N          63.8324   89.4712   15.4445 N.am    1  UNL1       -0.2836
     16 H          63.9391   89.1615   16.3729 H       1  UNL1        0.1513
     17 C          63.8416   87.5436   17.1865 C.3     1  UNL1        0.1188
     18 C          62.6325   87.0713   19.4370 C.2     1  UNL1       -0.0034
     19 C          62.7956   87.9033   18.1996 C.2     1  UNL1       -0.0071
     20 C          62.4246   82.1519   13.1651 C.3     1  UNL1        0.0556
     21 C          62.7146   81.1139   12.1218 C.ar    1  UNL1       -0.0198
     22 C          62.3490   79.6802   12.3682 C.ar    1  UNL1       -0.0011
     23 C          62.6390   78.6422   11.3249 C.ar    1  UNL1        0.0363
     24 C          63.2947   79.0380   10.0351 C.ar    1  UNL1        0.1337
     25 O          63.5847   78.0000    8.9918 O.3     1  UNL1       -0.5055
     26 C          63.6603   80.4718    9.7886 C.ar    1  UNL1        0.0363
     27 C          63.3703   81.5097   10.8320 C.ar    1  UNL1       -0.0011
     28 H          63.3563   77.1044    9.1458 H       1  UNL1        0.2922
     29 C          62.4063   86.0070    9.6812 C.3     1  UNL1        0.1217
     30 C          61.8532   87.3738    9.4053 C.ar    1  UNL1        0.0135
     31 C          62.2560   88.5338   10.2667 C.ar    1  UNL1       -0.0012
     32 C          61.7030   89.9005    9.9908 C.ar    1  UNL1       -0.0002
     33 C          60.7472   90.1072    8.8535 C.ar    1  UNL1        0.0016
     34 C          60.3444   88.9472    7.9920 C.ar    1  UNL1        0.0214
     35 C          59.4275   88.8461    6.8092 C.ar    1  UNL1        0.0721
     36 C          59.4138   87.4169    6.3541 C.ar    1  UNL1        0.0805
     37 N          60.3223   86.6347    7.2556 N.ar    1  UNL1       -0.3241
     38 C          60.6058   85.1648    7.1614 C.3     1  UNL1        0.1305
     39 C          60.8974   87.5805    8.2679 C.ar    1  UNL1        0.0577
     40 C          58.6591   89.9760    6.1902 C.2     1  UNL1        0.2506
     41 O          57.2246   90.2021    6.5660 O.2     1  UNL1       -0.2699
     42 N          59.3252   90.8797    5.1954 N.am    1  UNL1       -0.2732
     43 C          58.5569   92.0095    4.5763 C.3     1  UNL1        0.1110
     44 C          59.2230   92.9131    3.5815 C.3     1  UNL1        0.0940
     45 N          60.6574   92.6870    3.2057 N.3     1  UNL1       -0.2676
     46 C          61.4257   91.5572    3.8248 C.3     1  UNL1        0.0940
     47 C          60.7596   90.6535    4.8196 C.3     1  UNL1        0.1110
     48 C          61.3235   93.5907    2.2108 C.3     1  UNL1        0.1046
     49 C          62.8075   93.5156    2.0054 C.3     1  UNL1        0.1595
     50 O          63.4722   94.4126    1.0037 O.3     1  UNL1       -0.3496
     51 C          64.6896   93.9403    0.2655 C.3     1  UNL1        0.1742
     52 C          63.9858   90.9269   15.1171 C.3     1  UNL1        0.1177
     53 C          65.1593   91.3942   14.3082 C.ar    1  UNL1       -0.0025
     54 C          66.5395   91.3498   14.8940 C.ar    1  UNL1       -0.0026
     55 C          67.7130   91.8171   14.0850 C.ar    1  UNL1       -0.0003
     56 C          67.5065   92.3286   12.6902 C.ar    1  UNL1       -0.0000
     57 C          66.1263   92.3730   12.1043 C.ar    1  UNL1       -0.0003
     58 C          64.9527   91.9058   12.9133 C.ar    1  UNL1       -0.0026
@<TRIPOS>BOND
     1    18    19    2
     2    19    17    1
     3    17     1    1
     4     1     2    1
     5     2     3    1
     6     3     4    2
     7     3     5   am
     8     5     6    1
     9     6    20    1
    10    20    21    1
    11    21    22   ar
    12    22    23   ar
    13    23    24   ar
    14    24    25    1
    15    24    26   ar
    16    26    27   ar
    17     6     7    1
    18     7     8    2
    19     7     9   am
    20     9    29    1
    21    29    30    1
    22    30    31   ar
    23    31    32   ar
    24    32    33   ar
    25    33    34   ar
    26    34    35   ar
    27    35    40    1
    28    40    41    2
    29    40    42   am
    30    42    43    1
    31    43    44    1
    32    44    45    1
    33    45    48    1
    34    48    49    1
    35    49    50    1
    36    50    51    1
    37    45    46    1
    38    46    47    1
    39    35    36   ar
    40    36    37   ar
    41    37    38    1
    42    37    39   ar
    43     9    10    1
    44    11    10    1
    45    11    12    1
    46    12    13   am
    47    13    14    2
    48    13    15   am
    49    15    52    1
    50    52    53    1
    51    53    54   ar
    52    54    55   ar
    53    55    56   ar
    54    56    57   ar
    55    57    58   ar
    56    12     1    1
    57    58    53   ar
    58    11     5    1
    59    27    21   ar
    60    39    30   ar
    61    39    34   ar
    62    47    42    1
    63    25    28    1
    64    15    16    1
@<TRIPOS>MOLECULE
*****
 58 64 0 0 0
SMALL
GASTEIGER

@<TRIPOS>ATOM
      1 N          63.3974   86.1137   15.7852 N.3     1  UNL1       -0.1862
      2 C          63.4021   84.6582   16.1477 C.3     1  UNL1        0.1775
      3 C          63.5036   83.6177   15.0720 C.2     1  UNL1        0.2452
      4 O          63.5082   82.1621   15.4346 O.2     1  UNL1       -0.2732
      5 N          63.6006   84.0327   13.6339 N.am    1  UNL1       -0.2541
      6 C          63.7021   82.9922   12.5582 C.3     1  UNL1        0.1577
      7 C          63.7991   83.4072   11.1201 C.2     1  UNL1        0.2445
      8 O          63.9006   82.3666   10.0444 O.2     1  UNL1       -0.2731
      9 N          63.7944   84.8627   10.7575 N.am    1  UNL1       -0.2705
     10 C          63.6929   85.9032   11.8332 C.3     1  UNL1        0.1359
     11 C          63.5959   85.4882   13.2714 C.3     1  UNL1        0.1908
     12 N          63.4944   86.5287   14.3470 N.am    1  UNL1       -0.1863
     13 C          63.4898   87.9843   13.9844 C.2     1  UNL1        0.3191
     14 O          63.5867   88.3992   12.5463 O.2     1  UNL1       -0.2512
     15 N          63.3882   89.0248   15.0601 N.am    1  UNL1       -0.2836
     16 H          63.3246   88.7524   16.0040 H       1  UNL1        0.1513
     17 C          63.2959   87.1542   16.8608 C.3     1  UNL1        0.1188
     18 C          62.7246   87.0212   19.3918 C.2     1  UNL1       -0.0034
     19 C          62.2844   87.0025   17.9580 C.2     1  UNL1       -0.0071
     20 C          63.7067   81.5367   12.9208 C.3     1  UNL1        0.0556
     21 C          62.4317   80.8622   13.3323 C.ar    1  UNL1       -0.0198
     22 C          62.3539   79.3648   13.3707 C.ar    1  UNL1       -0.0011
     23 C          61.0789   78.6903   13.7823 C.ar    1  UNL1        0.0363
     24 C          59.8816   79.5133   14.1554 C.ar    1  UNL1        0.1337
     25 O          58.6066   78.8388   14.5669 O.3     1  UNL1       -0.5055
     26 C          59.9594   81.0108   14.1170 C.ar    1  UNL1        0.0363
     27 C          61.2344   81.6853   13.7054 C.ar    1  UNL1       -0.0011
     28 H          58.5580   77.9034   14.5909 H       1  UNL1        0.2922
     29 C          63.8914   85.2777    9.3193 C.3     1  UNL1        0.1217
     30 C          62.6461   85.4292    8.4969 C.ar    1  UNL1        0.0135
     31 C          62.1518   84.2823    7.6662 C.ar    1  UNL1       -0.0012
     32 C          60.9066   84.4338    6.8437 C.ar    1  UNL1       -0.0002
     33 C          60.1557   85.7322    6.8520 C.ar    1  UNL1        0.0016
     34 C          60.6500   86.8792    7.6827 C.ar    1  UNL1        0.0214
     35 C          60.1244   88.2688    7.8892 C.ar    1  UNL1        0.0721
     36 C          61.0447   88.9761    8.8393 C.ar    1  UNL1        0.0805
     37 N          62.1391   88.0237    9.2199 N.ar    1  UNL1       -0.3241
     38 C          63.2776   88.3159   10.1518 C.3     1  UNL1        0.1305
     39 C          61.8952   86.7277    8.5051 C.ar    1  UNL1        0.0577
     40 C          58.8942   88.8492    7.2566 C.2     1  UNL1        0.2506
     41 O          57.5379   88.3483    7.6560 O.2     1  UNL1       -0.2699
     42 N          59.0205   89.9305    6.2247 N.am    1  UNL1       -0.2732
     43 C          57.7905   90.5109    5.5921 C.3     1  UNL1        0.1110
     44 C          57.9167   91.5922    4.5602 C.3     1  UNL1        0.0940
     45 N          59.2730   92.0931    4.1608 N.3     1  UNL1       -0.2676
     46 C          60.5031   91.5127    4.7934 C.3     1  UNL1        0.0940
     47 C          60.3769   90.4314    5.8254 C.3     1  UNL1        0.1110
     48 C          59.3993   93.1744    3.1289 C.3     1  UNL1        0.1046
     49 C          59.7931   92.8278    1.7237 C.3     1  UNL1        0.1595
     50 O          61.1862   93.1094    1.2441 O.3     1  UNL1       -0.3496
     51 C          62.3644   92.6436    2.0470 C.3     1  UNL1        0.1742
     52 C          63.3836   90.4803   14.6976 C.3     1  UNL1        0.1177
     53 C          64.5995   91.1027   14.0778 C.ar    1  UNL1       -0.0025
     54 C          65.9037   91.1004   14.8189 C.ar    1  UNL1       -0.0026
     55 C          67.1196   91.7228   14.1992 C.ar    1  UNL1       -0.0003
     56 C          67.0314   92.3476   12.8384 C.ar    1  UNL1       -0.0000
     57 C          65.7273   92.3499   12.0972 C.ar    1  UNL1       -0.0003
     58 C          64.5113   91.7275   12.7169 C.ar    1  UNL1       -0.0026
@<TRIPOS>BOND
     1    18    19    2
     2    19    17    1
     3    17     1    1
     4     1     2    1
     5     2     3    1
     6     3     4    2
     7     3     5   am
     8     5     6    1
     9     6    20    1
    10    20    21    1
    11    21    22   ar
    12    22    23   ar
    13    23    24   ar
    14    24    25    1
    15    24    26   ar
    16    26    27   ar
    17     6     7    1
    18     7     8    2
    19     7     9   am
    20     9    29    1
    21    29    30    1
    22    30    31   ar
    23    31    32   ar
    24    32    33   ar
    25    33    34   ar
    26    34    35   ar
    27    35    40    1
    28    40    41    2
    29    40    42   am
    30    42    43    1
    31    43    44    1
    32    44    45    1
    33    45    48    1
    34    48    49    1
    35    49    50    1
    36    50    51    1
    37    45    46    1
    38    46    47    1
    39    35    36   ar
    40    36    37   ar
    41    37    38    1
    42    37    39   ar
    43     9    10    1
    44    11    10    1
    45    11    12    1
    46    12    13   am
    47    13    14    2
    48    13    15   am
    49    15    52    1
    50    52    53    1
    51    53    54   ar
    52    54    55   ar
    53    55    56   ar
    54    56    57   ar
    55    57    58   ar
    56    12     1    1
    57    58    53   ar
    58    11     5    1
    59    27    21   ar
    60    39    30   ar
    61    39    34   ar
    62    47    42    1
    63    25    28    1
    64    15    16    1
