@<TRIPOS>MOLECULE
*****
 21 24 0 0 0
SMALL
GASTEIGER

@<TRIPOS>ATOM
      1 C          61.5376   87.3116    9.5172 C.3     1  UNL1        0.0489
      2 C          60.4561   86.7280    8.6571 C.3     1  UNL1        0.0236
      3 C          59.2958   86.4442    7.7499 C.3     1  UNL1        0.0690
      4 N          58.6924   87.7563    7.3448 N.3     1  UNL1       -0.2974
      5 C          59.4798   88.8511    8.0016 C.3     1  UNL1        0.0690
      6 C          60.5699   88.2155    8.8127 C.3     1  UNL1        0.0236
      7 H          57.7198   87.7988    7.6493 H       1  UNL1        0.1232
      8 CL         64.2311   82.2780   11.3633 Cl      1  UNL1       -0.0814
      9 C          63.5577   83.5364   10.9018 C.ar    1  UNL1        0.0682
     10 C          63.6664   83.9627    9.4677 C.ar    1  UNL1        0.0119
     11 C          62.9931   85.2211    9.0062 C.ar    1  UNL1       -0.0033
     12 C          62.2110   86.0532    9.9787 C.ar    1  UNL1       -0.0195
     13 C          62.1023   85.6270   11.4128 C.ar    1  UNL1        0.0080
     14 C          62.7757   84.3686   11.8743 C.ar    1  UNL1        0.0679
     15 CL         62.6670   83.9424   13.3084 Cl      1  UNL1       -0.0814
     16 C          62.3852   88.3324   10.2170 C.3     1  UNL1        0.1460
     17 O          61.9775   88.8490   11.5648 O.3     1  UNL1       -0.3559
     18 C          63.0096   89.4147   12.4950 C.3     1  UNL1        0.1152
     19 C          63.8828   88.8535   13.5777 C.3     1  UNL1        0.0296
     20 C          64.4690   90.2145   13.8102 C.3     1  UNL1        0.0050
     21 C          63.5957   90.7756   12.7274 C.3     1  UNL1        0.0296
@<TRIPOS>BOND
     1     8     9    1
     2     9    10   ar
     3    10    11   ar
     4    11    12   ar
     5    12     1    1
     6     1    16    1
     7    16    17    1
     8    17    18    1
     9    18    19    1
    10    19    20    1
    11    20    21    1
    12     1     2    1
    13     2     3    1
    14     3     4    1
    15     4     5    1
    16     6     5    1
    17    12    13   ar
    18    13    14   ar
    19    14    15    1
    20    14     9   ar
    21     6     1    1
    22    21    18    1
    23     6     2    1
    24     4     7    1
@<TRIPOS>MOLECULE
*****
 21 24 0 0 0
SMALL
GASTEIGER

@<TRIPOS>ATOM
      1 C          64.4754   90.6364   13.7928 C.3     1  UNL1        0.0489
      2 C          65.8003   91.0326   14.3740 C.3     1  UNL1        0.0236
      3 C          67.1283   91.6375   14.7213 C.3     1  UNL1        0.0690
      4 N          67.4201   92.7189   13.7237 N.3     1  UNL1       -0.2974
      5 C          66.2725   92.7823   12.7598 C.3     1  UNL1        0.0690
      6 C          65.2714   91.7401   13.1618 C.3     1  UNL1        0.0236
      7 H          68.2819   92.5038   13.2222 H       1  UNL1        0.1232
      8 CL         62.9478   86.2417   17.5814 Cl      1  UNL1       -0.0814
      9 C          63.3297   87.3404   16.6343 C.ar    1  UNL1        0.0682
     10 C          63.0080   88.7663   16.9708 C.ar    1  UNL1        0.0119
     11 C          63.3899   89.8649   16.0236 C.ar    1  UNL1       -0.0033
     12 C          64.0935   89.5377   14.7400 C.ar    1  UNL1       -0.0195
     13 C          64.4153   88.1118   14.4035 C.ar    1  UNL1        0.0080
     14 C          64.0334   87.0132   15.3507 C.ar    1  UNL1        0.0679
     15 CL         64.3551   85.5872   15.0141 Cl      1  UNL1       -0.0814
     16 C          63.2833   90.6218   12.8826 C.3     1  UNL1        0.1460
     17 O          63.4652   90.3890   11.4121 O.3     1  UNL1       -0.3559
     18 C          62.4587   89.5779   10.6509 C.3     1  UNL1        0.1152
     19 C          62.2944   88.1220   10.3294 C.3     1  UNL1        0.0296
     20 C          61.0355   88.4309    9.5745 C.3     1  UNL1        0.0050
     21 C          61.1999   89.8868    9.8960 C.3     1  UNL1        0.0296
@<TRIPOS>BOND
     1     8     9    1
     2     9    10   ar
     3    10    11   ar
     4    11    12   ar
     5    12     1    1
     6     1    16    1
     7    16    17    1
     8    17    18    1
     9    18    19    1
    10    19    20    1
    11    20    21    1
    12     1     2    1
    13     2     3    1
    14     3     4    1
    15     4     5    1
    16     6     5    1
    17    12    13   ar
    18    13    14   ar
    19    14    15    1
    20    14     9   ar
    21     6     1    1
    22    21    18    1
    23     6     2    1
    24     4     7    1
@<TRIPOS>MOLECULE
*****
 21 24 0 0 0
SMALL
GASTEIGER

@<TRIPOS>ATOM
      1 C          61.2855   87.5113    9.8759 C.3     1  UNL1        0.0489
      2 C          60.4792   88.3658    8.9433 C.3     1  UNL1        0.0236
      3 C          59.5516   88.9466    7.9176 C.3     1  UNL1        0.0690
      4 N          58.8028   87.8159    7.2767 N.3     1  UNL1       -0.2974
      5 C          59.2676   86.5362    7.9064 C.3     1  UNL1        0.0690
      6 C          60.3037   86.8761    8.9364 C.3     1  UNL1        0.0236
      7 H          58.9938   87.7981    6.2749 H       1  UNL1        0.1232
      8 CL         64.4777   91.7502   12.6760 Cl      1  UNL1       -0.0814
      9 C          63.6797   90.6905   11.9760 C.ar    1  UNL1        0.0682
     10 C          63.0731   90.9725   10.6334 C.ar    1  UNL1        0.0119
     11 C          62.2751   89.9128    9.9334 C.ar    1  UNL1       -0.0033
     12 C          62.0836   88.5710   10.5759 C.ar    1  UNL1       -0.0195
     13 C          62.6901   88.2890   11.9185 C.ar    1  UNL1        0.0080
     14 C          63.4882   89.3487   12.6185 C.ar    1  UNL1        0.0679
     15 CL         64.0947   89.0666   13.9612 Cl      1  UNL1       -0.0814
     16 C          61.8147   86.2887   10.5653 C.3     1  UNL1        0.1460
     17 O          62.6462   85.2992    9.8041 O.3     1  UNL1       -0.3559
     18 C          63.3368   84.1834   10.5310 C.3     1  UNL1        0.1152
     19 C          63.4591   83.7689   11.9674 C.3     1  UNL1        0.0296
     20 C          64.3133   82.6056   11.5589 C.3     1  UNL1        0.0050
     21 C          64.1909   83.0200   10.1225 C.3     1  UNL1        0.0296
@<TRIPOS>BOND
     1     8     9    1
     2     9    10   ar
     3    10    11   ar
     4    11    12   ar
     5    12     1    1
     6     1    16    1
     7    16    17    1
     8    17    18    1
     9    18    19    1
    10    19    20    1
    11    20    21    1
    12     1     2    1
    13     2     3    1
    14     3     4    1
    15     4     5    1
    16     6     5    1
    17    12    13   ar
    18    13    14   ar
    19    14    15    1
    20    14     9   ar
    21     6     1    1
    22    21    18    1
    23     6     2    1
    24     4     7    1
@<TRIPOS>MOLECULE
*****
 21 24 0 0 0
SMALL
GASTEIGER

@<TRIPOS>ATOM
      1 C          65.8602   92.7674   13.0691 C.3     1  UNL1        0.0489
      2 C          66.8224   93.3621   14.0543 C.3     1  UNL1        0.0236
      3 C          67.6224   93.7894   15.2490 C.3     1  UNL1        0.0690
      4 N          67.0477   93.1125   16.4579 N.3     1  UNL1       -0.2974
      5 C          65.8924   92.2668   16.0102 C.3     1  UNL1        0.0690
      6 C          65.7532   92.4211   14.5247 C.3     1  UNL1        0.0236
      7 H          66.7257   93.8125   17.1263 H       1  UNL1        0.1232
      8 CL         67.8669   95.2818    8.0045 Cl      1  UNL1       -0.0814
      9 C          67.3653   94.6532    9.2707 C.ar    1  UNL1        0.0682
     10 C          66.5226   95.4508   10.2213 C.ar    1  UNL1        0.0119
     11 C          66.0210   94.8222   11.4874 C.ar    1  UNL1       -0.0033
     12 C          66.3619   93.3960   11.8030 C.ar    1  UNL1       -0.0195
     13 C          67.2045   92.5984   10.8523 C.ar    1  UNL1        0.0080
     14 C          67.7062   93.2270    9.5862 C.ar    1  UNL1        0.0679
     15 CL         68.5489   92.4293    8.6355 Cl      1  UNL1       -0.0814
     16 C          64.7238   91.9543   12.5238 C.3     1  UNL1        0.1460
     17 O          63.7879   91.2502   13.4609 O.3     1  UNL1       -0.3559
     18 C          63.8537   89.7587   13.6066 C.3     1  UNL1        0.1152
     19 C          64.3265   88.8171   14.6743 C.3     1  UNL1        0.0296
     20 C          63.9468   87.6496   13.8126 C.3     1  UNL1        0.0050
     21 C          63.4740   88.5911   12.7449 C.3     1  UNL1        0.0296
@<TRIPOS>BOND
     1     8     9    1
     2     9    10   ar
     3    10    11   ar
     4    11    12   ar
     5    12     1    1
     6     1    16    1
     7    16    17    1
     8    17    18    1
     9    18    19    1
    10    19    20    1
    11    20    21    1
    12     1     2    1
    13     2     3    1
    14     3     4    1
    15     4     5    1
    16     6     5    1
    17    12    13   ar
    18    13    14   ar
    19    14    15    1
    20    14     9   ar
    21     6     1    1
    22    21    18    1
    23     6     2    1
    24     4     7    1
@<TRIPOS>MOLECULE
*****
 21 24 0 0 0
SMALL
GASTEIGER

@<TRIPOS>ATOM
      1 C          64.4305   90.1975   13.7362 C.3     1  UNL1        0.0489
      2 C          63.3134   90.0210   12.7508 C.3     1  UNL1        0.0236
      3 C          62.3476   90.0668   11.6039 C.3     1  UNL1        0.0690
      4 N          62.8376   91.0932   10.6260 N.3     1  UNL1       -0.2974
      5 C          64.1062   91.6818   11.1685 C.3     1  UNL1        0.0690
      6 C          64.4003   91.0191   12.4816 C.3     1  UNL1        0.0236
      7 H          62.1368   91.8257   10.5128 H       1  UNL1        0.1232
      8 CL         62.8032   86.1813   17.8862 Cl      1  UNL1       -0.0814
      9 C          63.2100   87.1854   16.8487 C.ar    1  UNL1        0.0682
     10 C          62.9078   88.6402   17.0538 C.ar    1  UNL1        0.0119
     11 C          63.3146   89.6442   16.0163 C.ar    1  UNL1       -0.0033
     12 C          64.0236   89.1935   14.7737 C.ar    1  UNL1       -0.0195
     13 C          64.3258   87.7386   14.5686 C.ar    1  UNL1        0.0080
     14 C          63.9190   86.7346   15.6061 C.ar    1  UNL1        0.0679
     15 CL         64.2212   85.2797   15.4010 Cl      1  UNL1       -0.0814
     16 C          65.6888   90.7227   14.3613 C.3     1  UNL1        0.1460
     17 O          65.8789   92.2002   14.5369 O.3     1  UNL1       -0.3559
     18 C          67.1365   92.7254   15.1637 C.3     1  UNL1        0.1152
     19 C          68.2126   92.1426   16.0311 C.3     1  UNL1        0.0296
     20 C          68.9147   93.4679   16.0502 C.3     1  UNL1        0.0050
     21 C          67.8386   94.0507   15.1829 C.3     1  UNL1        0.0296
@<TRIPOS>BOND
     1     8     9    1
     2     9    10   ar
     3    10    11   ar
     4    11    12   ar
     5    12     1    1
     6     1    16    1
     7    16    17    1
     8    17    18    1
     9    18    19    1
    10    19    20    1
    11    20    21    1
    12     1     2    1
    13     2     3    1
    14     3     4    1
    15     4     5    1
    16     6     5    1
    17    12    13   ar
    18    13    14   ar
    19    14    15    1
    20    14     9   ar
    21     6     1    1
    22    21    18    1
    23     6     2    1
    24     4     7    1
@<TRIPOS>MOLECULE
*****
 21 24 0 0 0
SMALL
GASTEIGER

@<TRIPOS>ATOM
      1 C          63.6472   90.5488   12.5353 C.3     1  UNL1        0.0489
      2 C          64.2147   91.4657   11.4927 C.3     1  UNL1        0.0236
      3 C          64.9536   92.4936   10.6880 C.3     1  UNL1        0.0690
      4 N          65.8923   93.2158   11.6084 N.3     1  UNL1       -0.2974
      5 C          65.7336   92.6342   12.9820 C.3     1  UNL1        0.0690
      6 C          64.6967   91.5526   12.9104 C.3     1  UNL1        0.0236
      7 H          65.6645   94.2099   11.6250 H       1  UNL1        0.1232
      8 CL         59.7697   87.4311    9.1819 Cl      1  UNL1       -0.0814
      9 C          60.7391   88.2105   10.0203 C.ar    1  UNL1        0.0682
     10 C          60.6576   89.7076   10.0646 C.ar    1  UNL1        0.0119
     11 C          61.6269   90.4870   10.9030 C.ar    1  UNL1       -0.0033
     12 C          62.6779   89.7693   11.6970 C.ar    1  UNL1       -0.0195
     13 C          62.7594   88.2722   11.6526 C.ar    1  UNL1        0.0080
     14 C          61.7900   87.4928   10.8143 C.ar    1  UNL1        0.0679
     15 CL         61.8716   85.9956   10.7700 Cl      1  UNL1       -0.0814
     16 C          63.4164   89.9025   13.8691 C.3     1  UNL1        0.1460
     17 O          64.5065   89.0961   14.5105 O.3     1  UNL1       -0.3559
     18 C          64.1944   87.7584   15.1132 C.3     1  UNL1        0.1152
     19 C          64.4802   86.3340   14.7397 C.3     1  UNL1        0.0296
     20 C          63.7531   85.8667   15.9655 C.3     1  UNL1        0.0050
     21 C          63.4673   87.2911   16.3391 C.3     1  UNL1        0.0296
@<TRIPOS>BOND
     1     8     9    1
     2     9    10   ar
     3    10    11   ar
     4    11    12   ar
     5    12     1    1
     6     1    16    1
     7    16    17    1
     8    17    18    1
     9    18    19    1
    10    19    20    1
    11    20    21    1
    12     1     2    1
    13     2     3    1
    14     3     4    1
    15     4     5    1
    16     6     5    1
    17    12    13   ar
    18    13    14   ar
    19    14    15    1
    20    14     9   ar
    21     6     1    1
    22    21    18    1
    23     6     2    1
    24     4     7    1
@<TRIPOS>MOLECULE
*****
 21 24 0 0 0
SMALL
GASTEIGER

@<TRIPOS>ATOM
      1 C          63.4139   83.1400   13.2159 C.3     1  UNL1        0.0489
      2 C          62.5607   82.1093   13.8939 C.3     1  UNL1        0.0236
      3 C          61.7746   80.9047   14.3196 C.3     1  UNL1        0.0690
      4 N          61.9177   79.8578   13.2550 N.3     1  UNL1       -0.2974
      5 C          62.7922   80.4153   12.1713 C.3     1  UNL1        0.0690
      6 C          63.1896   81.8068   12.5661 C.3     1  UNL1        0.0236
      7 H          61.0009   79.6240   12.8741 H       1  UNL1        0.1232
      8 CL         63.0864   87.5760   17.2427 Cl      1  UNL1       -0.0814
      9 C          63.1683   86.4670   16.2360 C.ar    1  UNL1        0.0682
     10 C          62.4986   85.1533   16.5111 C.ar    1  UNL1        0.0119
     11 C          62.5804   84.0443   15.5044 C.ar    1  UNL1       -0.0033
     12 C          63.3320   84.2490   14.2226 C.ar    1  UNL1       -0.0195
     13 C          64.0018   85.5626   13.9474 C.ar    1  UNL1        0.0080
     14 C          63.9199   86.6716   14.9541 C.ar    1  UNL1        0.0679
     15 CL         64.5897   87.9853   14.6789 Cl      1  UNL1       -0.0814
     16 C          64.2955   83.7855   12.1883 C.3     1  UNL1        0.1460
     17 O          63.9689   83.6534   10.7303 O.3     1  UNL1       -0.3559
     18 C          63.1399   84.7019   10.0494 C.3     1  UNL1        0.1152
     19 C          63.0549   85.2460    8.6542 C.3     1  UNL1        0.0296
     20 C          61.9676   86.1844    9.0865 C.3     1  UNL1        0.0050
     21 C          62.0526   85.6403   10.4817 C.3     1  UNL1        0.0296
@<TRIPOS>BOND
     1     8     9    1
     2     9    10   ar
     3    10    11   ar
     4    11    12   ar
     5    12     1    1
     6     1    16    1
     7    16    17    1
     8    17    18    1
     9    18    19    1
    10    19    20    1
    11    20    21    1
    12     1     2    1
    13     2     3    1
    14     3     4    1
    15     4     5    1
    16     6     5    1
    17    12    13   ar
    18    13    14   ar
    19    14    15    1
    20    14     9   ar
    21     6     1    1
    22    21    18    1
    23     6     2    1
    24     4     7    1
@<TRIPOS>MOLECULE
*****
 21 24 0 0 0
SMALL
GASTEIGER

@<TRIPOS>ATOM
      1 C          65.7883   92.7296   13.0463 C.3     1  UNL1        0.0489
      2 C          66.7552   93.2846   14.0498 C.3     1  UNL1        0.0236
      3 C          67.5493   93.6790   15.2597 C.3     1  UNL1        0.0690
      4 N          66.9244   93.0266   16.4571 N.3     1  UNL1       -0.2974
      5 C          65.7441   92.2290   15.9872 C.3     1  UNL1        0.0690
      6 C          65.6395   92.3885   14.4994 C.3     1  UNL1        0.0236
      7 H          66.6189   93.7395   17.1196 H       1  UNL1        0.1232
      8 CL         67.9923   95.1579    8.0218 Cl      1  UNL1       -0.0814
      9 C          67.4413   94.5508    9.2779 C.ar    1  UNL1        0.0682
     10 C          67.6727   93.0985    9.5732 C.ar    1  UNL1        0.0119
     11 C          67.1217   92.4914   10.8293 C.ar    1  UNL1       -0.0033
     12 C          66.3393   93.3367   11.7902 C.ar    1  UNL1       -0.0195
     13 C          66.1079   94.7890   11.4950 C.ar    1  UNL1        0.0080
     14 C          66.6589   95.3961   10.2388 C.ar    1  UNL1        0.0679
     15 CL         66.4274   96.8485    9.9437 Cl      1  UNL1       -0.0814
     16 C          64.6299   91.9637   12.4791 C.3     1  UNL1        0.1460
     17 O          63.9749   90.8851   13.2899 O.3     1  UNL1       -0.3559
     18 C          63.4144   89.6712   12.6098 C.3     1  UNL1        0.1152
     19 C          63.5106   88.1910   12.8330 C.3     1  UNL1        0.0296
     20 C          62.6218   87.9547   11.6480 C.3     1  UNL1        0.0050
     21 C          62.5256   89.4348   11.4248 C.3     1  UNL1        0.0296
@<TRIPOS>BOND
     1     8     9    1
     2     9    10   ar
     3    10    11   ar
     4    11    12   ar
     5    12     1    1
     6     1    16    1
     7    16    17    1
     8    17    18    1
     9    18    19    1
    10    19    20    1
    11    20    21    1
    12     1     2    1
    13     2     3    1
    14     3     4    1
    15     4     5    1
    16     6     5    1
    17    12    13   ar
    18    13    14   ar
    19    14    15    1
    20    14     9   ar
    21     6     1    1
    22    21    18    1
    23     6     2    1
    24     4     7    1
@<TRIPOS>MOLECULE
*****
 21 24 0 0 0
SMALL
GASTEIGER

@<TRIPOS>ATOM
      1 C          62.7687   85.6092   12.2656 C.3     1  UNL1        0.0489
      2 C          63.5371   86.0353   13.4814 C.3     1  UNL1        0.0236
      3 C          64.2759   86.7486   14.5747 C.3     1  UNL1        0.0690
      4 N          64.2953   88.2114   14.2433 N.3     1  UNL1       -0.2974
      5 C          63.5683   88.4022   12.9451 C.3     1  UNL1        0.0690
      6 C          63.0998   87.0573   12.4742 C.3     1  UNL1        0.0236
      7 H          65.2589   88.5326   14.1509 H       1  UNL1        0.1232
      8 CL         62.4766   79.6956   13.2373 Cl      1  UNL1       -0.0814
      9 C          62.5496   81.1740   12.9944 C.ar    1  UNL1        0.0682
     10 C          62.2670   82.1327   14.1128 C.ar    1  UNL1        0.0119
     11 C          62.3400   83.6111   13.8699 C.ar    1  UNL1       -0.0033
     12 C          62.6957   84.1308   12.5085 C.ar    1  UNL1       -0.0195
     13 C          62.9783   83.1722   11.3901 C.ar    1  UNL1        0.0080
     14 C          62.9053   81.6938   11.6330 C.ar    1  UNL1        0.0679
     15 CL         63.1879   80.7350   10.5144 Cl      1  UNL1       -0.0814
     16 C          62.0257   85.6966   10.9655 C.3     1  UNL1        0.1460
     17 O          62.0439   86.9716   10.1755 O.3     1  UNL1       -0.3559
     18 C          60.9453   87.2630    9.1965 C.3     1  UNL1        0.1152
     19 C          60.1531   86.4480    8.2177 C.3     1  UNL1        0.0296
     20 C          59.3919   87.6751    7.8121 C.3     1  UNL1        0.0050
     21 C          60.1841   88.4901    8.7909 C.3     1  UNL1        0.0296
@<TRIPOS>BOND
     1     8     9    1
     2     9    10   ar
     3    10    11   ar
     4    11    12   ar
     5    12     1    1
     6     1    16    1
     7    16    17    1
     8    17    18    1
     9    18    19    1
    10    19    20    1
    11    20    21    1
    12     1     2    1
    13     2     3    1
    14     3     4    1
    15     4     5    1
    16     6     5    1
    17    12    13   ar
    18    13    14   ar
    19    14    15    1
    20    14     9   ar
    21     6     1    1
    22    21    18    1
    23     6     2    1
    24     4     7    1
