@<TRIPOS>MOLECULE
*****
 31 34 0 0 0
SMALL
GASTEIGER

@<TRIPOS>ATOM
      1 C          64.0414   90.1238   15.5422 C.2     1  UNL1        0.1078
      2 N          63.2300   90.4815   16.7520 N.2     1  UNL1       -0.1481
      3 N          62.7440   89.2077   17.3774 N.2     1  UNL1       -0.1516
      4 C          63.2551   88.0626   16.5541 C.2     1  UNL1        0.0979
      5 C          63.0940   86.5776   16.6907 C.3     1  UNL1        0.1651
      6 C          63.7347   85.6588   15.6932 C.2     1  UNL1        0.3110
      7 N          64.5365   86.2250   14.5590 N.2     1  UNL1       -0.0399
      8 C          64.6977   87.7100   14.4223 C.2     1  UNL1        0.2380
      9 C          64.0570   88.6288   15.4199 C.2     1  UNL1        0.0820
     10 C          64.6156   92.1619   10.7971 C.3     1  UNL1        0.0521
     11 C          65.0056   92.1102   12.2446 C.ar    1  UNL1        0.0590
     12 C          64.3286   91.1429   13.1697 C.ar    1  UNL1        0.0163
     13 C          64.7185   91.0911   14.6171 C.ar    1  UNL1        0.0219
     14 C          65.7857   92.0068   15.1395 C.ar    1  UNL1        0.0163
     15 C          66.4628   92.9741   14.2144 C.ar    1  UNL1        0.0590
     16 C          67.5299   93.8897   14.7368 C.3     1  UNL1        0.0521
     17 N          66.0728   93.0258   12.7669 N.ar    1  UNL1       -0.2540
     18 N          63.5735   84.1737   15.8298 N.am    1  UNL1       -0.1565
     19 C          62.7605   83.4120   14.8254 C.2     1  UNL1        0.3925
     20 O          62.1086   84.1354   13.6844 O.2     1  UNL1       -0.2238
     21 N          62.5993   81.9270   14.9619 N.am    1  UNL1       -0.2666
     22 H          64.0014   83.6989   16.5786 H       1  UNL1        0.3027
     23 H          63.0272   81.4522   15.7108 H       1  UNL1        0.1533
     24 C          61.7863   81.1653   13.9575 C.3     1  UNL1        0.0977
     25 C          60.4171   80.6715   14.3203 C.3     1  UNL1        0.0263
     26 C          62.3424   80.8974   12.5904 C.ar    1  UNL1       -0.0044
     27 C          62.3647   79.4980   12.0508 C.ar    1  UNL1       -0.0027
     28 C          62.9208   79.2301   10.6837 C.ar    1  UNL1       -0.0003
     29 C          63.4546   80.3616    9.8562 C.ar    1  UNL1       -0.0000
     30 C          63.4322   81.7610   10.3958 C.ar    1  UNL1       -0.0003
     31 C          62.8761   82.0289   11.7629 C.ar    1  UNL1       -0.0027
@<TRIPOS>BOND
     1    10    11    1
     2    11    12   ar
     3    12    13   ar
     4    13     1    1
     5     1     2    2
     6     2     3    1
     7     3     4    2
     8     4     5    1
     9     5     6    1
    10     6    18    1
    11    18    19   am
    12    19    20    2
    13    19    21   am
    14    21    24    1
    15    24    25    1
    16    24    26    1
    17    26    27   ar
    18    27    28   ar
    19    28    29   ar
    20    29    30   ar
    21    30    31   ar
    22     6     7    2
    23     7     8    1
    24     8     9    2
    25    13    14   ar
    26    14    15   ar
    27    15    16    1
    28    15    17   ar
    29    17    11   ar
    30     9     1    1
    31     9     4    1
    32    31    26   ar
    33    18    22    1
    34    21    23    1
@<TRIPOS>MOLECULE
*****
 31 34 0 0 0
SMALL
GASTEIGER

@<TRIPOS>ATOM
      1 C          64.3716   90.7997   15.3838 C.2     1  UNL1        0.1078
      2 N          63.3900   91.3762   16.3606 N.2     1  UNL1       -0.1481
      3 N          62.6420   90.2393   16.9916 N.2     1  UNL1       -0.1516
      4 C          63.1614   88.9603   16.4048 C.2     1  UNL1        0.0979
      5 C          62.7990   87.5250   16.6470 C.3     1  UNL1        0.1651
      6 C          63.5056   86.4361   15.8954 C.2     1  UNL1        0.3110
      7 N          64.5746   86.7824   14.9018 N.2     1  UNL1       -0.0399
      8 C          64.9370   88.2177   14.6596 C.2     1  UNL1        0.2380
      9 C          64.2303   89.3066   15.4112 C.2     1  UNL1        0.0820
     10 C          69.0197   93.0220   14.7079 C.3     1  UNL1        0.0521
     11 C          67.6509   92.6905   14.1917 C.ar    1  UNL1        0.0590
     12 C          66.6956   91.9108   15.0458 C.ar    1  UNL1        0.0163
     13 C          65.3268   91.5794   14.5297 C.ar    1  UNL1        0.0219
     14 C          64.9132   92.0277   13.1592 C.ar    1  UNL1        0.0163
     15 C          65.8685   92.8074   12.3051 C.ar    1  UNL1        0.0590
     16 C          65.4548   93.2557   10.9347 C.3     1  UNL1        0.0521
     17 N          67.2373   93.1388   12.8213 N.ar    1  UNL1       -0.2540
     18 N          63.1433   85.0007   16.1375 N.am    1  UNL1       -0.1565
     19 C          62.7360   84.1260   14.9890 C.2     1  UNL1        0.3925
     20 O          62.6910   84.6867   13.5984 O.2     1  UNL1       -0.2238
     21 N          62.3736   82.6908   15.2311 N.am    1  UNL1       -0.2666
     22 H          63.1728   84.6328   17.0502 H       1  UNL1        0.3027
     23 H          62.4032   82.3228   16.1437 H       1  UNL1        0.1533
     24 C          61.9663   81.8161   14.0826 C.3     1  UNL1        0.0977
     25 C          60.7912   80.8942   14.2219 C.3     1  UNL1        0.0263
     26 C          62.7339   81.8633   12.7948 C.ar    1  UNL1       -0.0044
     27 C          62.3548   80.9561   11.6619 C.ar    1  UNL1       -0.0027
     28 C          63.1225   81.0033   10.3742 C.ar    1  UNL1       -0.0003
     29 C          64.2693   81.9577   10.2192 C.ar    1  UNL1       -0.0000
     30 C          64.6484   82.8649   11.3519 C.ar    1  UNL1       -0.0003
     31 C          63.8807   82.8177   12.6398 C.ar    1  UNL1       -0.0027
@<TRIPOS>BOND
     1    10    11    1
     2    11    12   ar
     3    12    13   ar
     4    13     1    1
     5     1     2    2
     6     2     3    1
     7     3     4    2
     8     4     5    1
     9     5     6    1
    10     6    18    1
    11    18    19   am
    12    19    20    2
    13    19    21   am
    14    21    24    1
    15    24    25    1
    16    24    26    1
    17    26    27   ar
    18    27    28   ar
    19    28    29   ar
    20    29    30   ar
    21    30    31   ar
    22     6     7    2
    23     7     8    1
    24     8     9    2
    25    13    14   ar
    26    14    15   ar
    27    15    16    1
    28    15    17   ar
    29    17    11   ar
    30     9     1    1
    31     9     4    1
    32    31    26   ar
    33    18    22    1
    34    21    23    1
@<TRIPOS>MOLECULE
*****
 31 34 0 0 0
SMALL
GASTEIGER

@<TRIPOS>ATOM
      1 C          59.5924   88.6357    7.4273 C.2     1  UNL1        0.1078
      2 N          59.0428   87.2401    7.4390 N.2     1  UNL1       -0.1481
      3 N          59.6229   86.5235    8.6221 N.2     1  UNL1       -0.1516
      4 C          60.5310   87.4761    9.3417 C.2     1  UNL1        0.0979
      5 C          61.3727   87.3235   10.5738 C.3     1  UNL1        0.1651
      6 C          62.1955   88.4764   11.0675 C.2     1  UNL1        0.3110
      7 N          62.1767   89.7819   10.3291 N.2     1  UNL1       -0.0399
      8 C          61.3350   89.9345    9.0969 C.2     1  UNL1        0.2380
      9 C          60.5122   88.7816    8.6032 C.2     1  UNL1        0.0820
     10 C          61.1789   92.0679    3.8631 C.3     1  UNL1        0.0521
     11 C          60.0708   91.4150    4.6349 C.ar    1  UNL1        0.0590
     12 C          60.3856   90.3518    5.6452 C.ar    1  UNL1        0.0163
     13 C          59.2776   89.6989    6.4170 C.ar    1  UNL1        0.0219
     14 C          57.8545   90.1091    6.1786 C.ar    1  UNL1        0.0163
     15 C          57.5397   91.1723    5.1684 C.ar    1  UNL1        0.0590
     16 C          56.1167   91.5824    4.9300 C.3     1  UNL1        0.0521
     17 N          58.6478   91.8252    4.3965 N.ar    1  UNL1       -0.2540
     18 N          63.0372   88.3239   12.2998 N.am    1  UNL1       -0.1565
     19 C          63.3031   89.5105   13.1780 C.2     1  UNL1        0.3925
     20 O          62.7273   90.8496   12.8240 O.2     1  UNL1       -0.2238
     21 N          64.1448   89.3580   14.4102 N.am    1  UNL1       -0.2666
     22 H          63.4151   87.4450   12.5321 H       1  UNL1        0.3027
     23 H          64.5226   88.4790   14.6425 H       1  UNL1        0.1533
     24 C          64.4107   90.5445   15.2884 C.3     1  UNL1        0.0977
     25 C          63.4430   90.9040   16.3768 C.3     1  UNL1        0.0263
     26 C          65.6442   91.3717   15.0783 C.ar    1  UNL1       -0.0044
     27 C          66.4255   91.2431   13.8043 C.ar    1  UNL1       -0.0027
     28 C          67.6591   92.0702   13.5942 C.ar    1  UNL1       -0.0003
     29 C          68.1114   93.0259   14.6581 C.ar    1  UNL1       -0.0000
     30 C          67.3302   93.1546   15.9321 C.ar    1  UNL1       -0.0003
     31 C          66.0966   92.3274   16.1423 C.ar    1  UNL1       -0.0027
@<TRIPOS>BOND
     1    10    11    1
     2    11    12   ar
     3    12    13   ar
     4    13     1    1
     5     1     2    2
     6     2     3    1
     7     3     4    2
     8     4     5    1
     9     5     6    1
    10     6    18    1
    11    18    19   am
    12    19    20    2
    13    19    21   am
    14    21    24    1
    15    24    25    1
    16    24    26    1
    17    26    27   ar
    18    27    28   ar
    19    28    29   ar
    20    29    30   ar
    21    30    31   ar
    22     6     7    2
    23     7     8    1
    24     8     9    2
    25    13    14   ar
    26    14    15   ar
    27    15    16    1
    28    15    17   ar
    29    17    11   ar
    30     9     1    1
    31     9     4    1
    32    31    26   ar
    33    18    22    1
    34    21    23    1
@<TRIPOS>MOLECULE
*****
 31 34 0 0 0
SMALL
GASTEIGER

@<TRIPOS>ATOM
      1 C          59.3663   88.5435    7.1961 C.2     1  UNL1        0.1078
      2 N          58.7849   87.1682    7.0526 N.2     1  UNL1       -0.1481
      3 N          59.2470   86.3457    8.2187 N.2     1  UNL1       -0.1516
      4 C          60.1140   87.2125    9.0829 C.2     1  UNL1        0.0979
      5 C          60.8459   86.9404   10.3636 C.3     1  UNL1        0.1651
      6 C          61.6515   88.0267   11.0123 C.2     1  UNL1        0.3110
      7 N          61.7252   89.3851   10.3804 N.2     1  UNL1       -0.0399
      8 C          60.9934   89.6572    9.0996 C.2     1  UNL1        0.2380
      9 C          60.1878   88.5709    8.4509 C.2     1  UNL1        0.0820
     10 C          56.1985   91.9099    4.8229 C.3     1  UNL1        0.0521
     11 C          57.5783   91.3733    5.0642 C.ar    1  UNL1        0.0590
     12 C          57.7824   90.2267    6.0095 C.ar    1  UNL1        0.0163
     13 C          59.1621   89.6901    6.2508 C.ar    1  UNL1        0.0219
     14 C          60.3379   90.3002    5.5468 C.ar    1  UNL1        0.0163
     15 C          60.1337   91.4468    4.6015 C.ar    1  UNL1        0.0590
     16 C          61.3094   92.0568    3.8975 C.3     1  UNL1        0.0521
     17 N          58.7539   91.9834    4.3602 N.ar    1  UNL1       -0.2540
     18 N          62.3834   87.7547   12.2932 N.am    1  UNL1       -0.1565
     19 C          63.0342   86.4219   12.5165 C.2     1  UNL1        0.3925
     20 O          62.9532   85.3610   11.4590 O.2     1  UNL1       -0.2238
     21 N          63.7661   86.1498   13.7972 N.am    1  UNL1       -0.2666
     22 H          62.4366   88.4510   12.9872 H       1  UNL1        0.3027
     23 H          63.8193   86.8460   14.4912 H       1  UNL1        0.1533
     24 C          64.4170   84.8169   14.0206 C.3     1  UNL1        0.0977
     25 C          65.8350   84.7464   14.5047 C.3     1  UNL1        0.0263
     26 C          63.6499   83.5546   13.7597 C.ar    1  UNL1       -0.0044
     27 C          64.0633   82.6429   12.6426 C.ar    1  UNL1       -0.0027
     28 C          63.2962   81.3806   12.3818 C.ar    1  UNL1       -0.0003
     29 C          62.1157   81.0299   13.2381 C.ar    1  UNL1       -0.0000
     30 C          61.7022   81.9415   14.3552 C.ar    1  UNL1       -0.0003
     31 C          62.4693   83.2039   14.6161 C.ar    1  UNL1       -0.0027
@<TRIPOS>BOND
     1    10    11    1
     2    11    12   ar
     3    12    13   ar
     4    13     1    1
     5     1     2    2
     6     2     3    1
     7     3     4    2
     8     4     5    1
     9     5     6    1
    10     6    18    1
    11    18    19   am
    12    19    20    2
    13    19    21   am
    14    21    24    1
    15    24    25    1
    16    24    26    1
    17    26    27   ar
    18    27    28   ar
    19    28    29   ar
    20    29    30   ar
    21    30    31   ar
    22     6     7    2
    23     7     8    1
    24     8     9    2
    25    13    14   ar
    26    14    15   ar
    27    15    16    1
    28    15    17   ar
    29    17    11   ar
    30     9     1    1
    31     9     4    1
    32    31    26   ar
    33    18    22    1
    34    21    23    1
@<TRIPOS>MOLECULE
*****
 31 34 0 0 0
SMALL
GASTEIGER

@<TRIPOS>ATOM
      1 C          59.4289   88.6433    7.3357 C.2     1  UNL1        0.1078
      2 N          58.7963   87.2834    7.3592 N.2     1  UNL1       -0.1481
      3 N          59.3802   86.5205    8.5111 N.2     1  UNL1       -0.1516
      4 C          60.3737   87.4088    9.1996 C.2     1  UNL1        0.0979
      5 C          61.2547   87.1925   10.3941 C.3     1  UNL1        0.1651
      6 C          62.1659   88.2882   10.8621 C.2     1  UNL1        0.3110
      7 N          62.1959   89.6003   10.1357 N.2     1  UNL1       -0.0399
      8 C          61.3148   89.8166    8.9412 C.2     1  UNL1        0.2380
      9 C          60.4037   88.7208    8.4732 C.2     1  UNL1        0.0820
     10 C          61.0959   92.1513    3.8840 C.3     1  UNL1        0.0521
     11 C          59.9712   91.4883    4.6224 C.ar    1  UNL1        0.0590
     12 C          60.2624   90.3973    5.6099 C.ar    1  UNL1        0.0163
     13 C          59.1377   89.7342    6.3483 C.ar    1  UNL1        0.0219
     14 C          57.7217   90.1621    6.0992 C.ar    1  UNL1        0.0163
     15 C          57.4305   91.2531    5.1117 C.ar    1  UNL1        0.0590
     16 C          56.0146   91.6808    4.8627 C.3     1  UNL1        0.0521
     17 N          58.5553   91.9161    4.3733 N.ar    1  UNL1       -0.2540
     18 N          63.0470   88.0720   12.0567 N.am    1  UNL1       -0.1565
     19 C          62.9285   86.8090   12.8573 C.2     1  UNL1        0.3925
     20 O          61.9287   85.7624   12.4633 O.2     1  UNL1       -0.2238
     21 N          63.8095   86.5928   14.0518 N.am    1  UNL1       -0.2666
     22 H          63.7031   88.7589   12.3152 H       1  UNL1        0.3027
     23 H          64.4657   87.2797   14.3103 H       1  UNL1        0.1533
     24 C          63.6910   85.3298   14.8524 C.3     1  UNL1        0.0977
     25 C          63.7032   85.3881   16.3513 C.3     1  UNL1        0.0263
     26 C          63.5601   84.0087   14.1542 C.ar    1  UNL1       -0.0044
     27 C          62.4914   83.0424   14.5716 C.ar    1  UNL1       -0.0027
     28 C          62.3606   81.7213   13.8734 C.ar    1  UNL1       -0.0003
     29 C          63.2985   81.3664   12.7578 C.ar    1  UNL1       -0.0000
     30 C          64.3671   82.3327   12.3404 C.ar    1  UNL1       -0.0003
     31 C          64.4980   83.6539   13.0386 C.ar    1  UNL1       -0.0027
@<TRIPOS>BOND
     1    10    11    1
     2    11    12   ar
     3    12    13   ar
     4    13     1    1
     5     1     2    2
     6     2     3    1
     7     3     4    2
     8     4     5    1
     9     5     6    1
    10     6    18    1
    11    18    19   am
    12    19    20    2
    13    19    21   am
    14    21    24    1
    15    24    25    1
    16    24    26    1
    17    26    27   ar
    18    27    28   ar
    19    28    29   ar
    20    29    30   ar
    21    30    31   ar
    22     6     7    2
    23     7     8    1
    24     8     9    2
    25    13    14   ar
    26    14    15   ar
    27    15    16    1
    28    15    17   ar
    29    17    11   ar
    30     9     1    1
    31     9     4    1
    32    31    26   ar
    33    18    22    1
    34    21    23    1
@<TRIPOS>MOLECULE
*****
 31 34 0 0 0
SMALL
GASTEIGER

@<TRIPOS>ATOM
      1 C          62.3428   85.4879   11.0120 C.2     1  UNL1        0.1078
      2 N          61.6077   85.6187    9.7110 N.2     1  UNL1       -0.1481
      3 N          61.4743   87.0798    9.3990 N.2     1  UNL1       -0.1516
      4 C          62.1270   87.8520   10.5071 C.2     1  UNL1        0.0979
      5 C          62.3018   89.3239   10.7371 C.3     1  UNL1        0.1651
      6 C          63.0134   89.8118   11.9641 C.2     1  UNL1        0.3110
      7 N          63.5502   88.8279   12.9610 N.2     1  UNL1       -0.0399
      8 C          63.3753   87.3560   12.7309 C.2     1  UNL1        0.2380
      9 C          62.6637   86.8681   11.5040 C.2     1  UNL1        0.0820
     10 C          62.9820   80.3333   10.8655 C.3     1  UNL1        0.0521
     11 C          63.0147   81.6252   11.6270 C.ar    1  UNL1        0.0590
     12 C          62.6624   82.9106   10.9388 C.ar    1  UNL1        0.0163
     13 C          62.6951   84.2025   11.7002 C.ar    1  UNL1        0.0219
     14 C          63.0801   84.2090   13.1500 C.ar    1  UNL1        0.0163
     15 C          63.4325   82.9236   13.8382 C.ar    1  UNL1        0.0590
     16 C          63.8175   82.9302   15.2879 C.3     1  UNL1        0.0521
     17 N          63.3997   81.6317   13.0767 N.ar    1  UNL1       -0.2540
     18 N          63.1883   91.2838   12.1942 N.am    1  UNL1       -0.1565
     19 C          64.5589   91.8918   12.1519 C.2     1  UNL1        0.3925
     20 O          65.7546   91.0279   11.8795 O.2     1  UNL1       -0.2238
     21 N          64.7339   93.3637   12.3819 N.am    1  UNL1       -0.2666
     22 H          62.4036   91.8507   12.3729 H       1  UNL1        0.3027
     23 H          63.9491   93.9306   12.5607 H       1  UNL1        0.1533
     24 C          66.1044   93.9717   12.3397 C.3     1  UNL1        0.0977
     25 C          66.9923   93.9046   13.5469 C.3     1  UNL1        0.0263
     26 C          66.5872   94.6468   11.0902 C.ar    1  UNL1       -0.0044
     27 C          66.4614   96.1345   10.9451 C.ar    1  UNL1       -0.0027
     28 C          66.9442   96.8096    9.6956 C.ar    1  UNL1       -0.0003
     29 C          67.5528   95.9971    8.5913 C.ar    1  UNL1       -0.0000
     30 C          67.6786   94.5095    8.7365 C.ar    1  UNL1       -0.0003
     31 C          67.1958   93.8343    9.9859 C.ar    1  UNL1       -0.0027
@<TRIPOS>BOND
     1    10    11    1
     2    11    12   ar
     3    12    13   ar
     4    13     1    1
     5     1     2    2
     6     2     3    1
     7     3     4    2
     8     4     5    1
     9     5     6    1
    10     6    18    1
    11    18    19   am
    12    19    20    2
    13    19    21   am
    14    21    24    1
    15    24    25    1
    16    24    26    1
    17    26    27   ar
    18    27    28   ar
    19    28    29   ar
    20    29    30   ar
    21    30    31   ar
    22     6     7    2
    23     7     8    1
    24     8     9    2
    25    13    14   ar
    26    14    15   ar
    27    15    16    1
    28    15    17   ar
    29    17    11   ar
    30     9     1    1
    31     9     4    1
    32    31    26   ar
    33    18    22    1
    34    21    23    1
@<TRIPOS>MOLECULE
*****
 31 34 0 0 0
SMALL
GASTEIGER

@<TRIPOS>ATOM
      1 C          62.3854   86.3814   11.5315 C.2     1  UNL1        0.1078
      2 N          62.6098   87.7075   12.1957 N.2     1  UNL1       -0.1481
      3 N          61.9063   88.7563   11.3862 N.2     1  UNL1       -0.1516
      4 C          61.2471   88.0784   10.2218 C.2     1  UNL1        0.0979
      5 C          60.4155   88.6079    9.0914 C.3     1  UNL1        0.1651
      6 C          59.8799   87.6698    8.0508 C.2     1  UNL1        0.3110
      7 N          60.1760   86.2020    8.1405 N.2     1  UNL1       -0.0399
      8 C          61.0076   85.6724    9.2710 C.2     1  UNL1        0.2380
      9 C          61.5432   86.6106   10.3116 C.2     1  UNL1        0.0820
     10 C          64.2745   83.3893   15.3366 C.3     1  UNL1        0.0521
     11 C          63.8554   83.5623   13.9067 C.ar    1  UNL1        0.0590
     12 C          63.3299   84.8854   13.4340 C.ar    1  UNL1        0.0163
     13 C          62.9109   85.0584   12.0042 C.ar    1  UNL1        0.0219
     14 C          63.0173   83.9083   11.0471 C.ar    1  UNL1        0.0163
     15 C          63.5428   82.5853   11.5198 C.ar    1  UNL1        0.0590
     16 C          63.6492   81.4353   10.5626 C.3     1  UNL1        0.0521
     17 N          63.9618   82.4123   12.9496 N.ar    1  UNL1       -0.2540
     18 N          59.0483   88.1993    6.9202 N.am    1  UNL1       -0.1565
     19 C          59.2647   89.5970    6.4206 C.2     1  UNL1        0.3925
     20 O          60.3128   90.4651    7.0515 O.2     1  UNL1       -0.2238
     21 N          58.4331   90.1266    5.2902 N.am    1  UNL1       -0.2666
     22 H          58.3604   87.6295    6.5062 H       1  UNL1        0.3027
     23 H          57.7452   89.5568    4.8761 H       1  UNL1        0.1533
     24 C          58.6495   91.5243    4.7905 C.3     1  UNL1        0.0977
     25 C          57.6639   92.6030    5.1297 C.3     1  UNL1        0.0263
     26 C          59.8515   91.8432    3.9518 C.ar    1  UNL1       -0.0044
     27 C          61.1926   91.2798    4.3180 C.ar    1  UNL1       -0.0027
     28 C          62.3945   91.5987    3.4793 C.ar    1  UNL1       -0.0003
     29 C          62.2555   92.4811    2.2743 C.ar    1  UNL1       -0.0000
     30 C          60.9145   93.0446    1.9081 C.ar    1  UNL1       -0.0003
     31 C          59.7125   92.7256    2.7468 C.ar    1  UNL1       -0.0027
@<TRIPOS>BOND
     1    10    11    1
     2    11    12   ar
     3    12    13   ar
     4    13     1    1
     5     1     2    2
     6     2     3    1
     7     3     4    2
     8     4     5    1
     9     5     6    1
    10     6    18    1
    11    18    19   am
    12    19    20    2
    13    19    21   am
    14    21    24    1
    15    24    25    1
    16    24    26    1
    17    26    27   ar
    18    27    28   ar
    19    28    29   ar
    20    29    30   ar
    21    30    31   ar
    22     6     7    2
    23     7     8    1
    24     8     9    2
    25    13    14   ar
    26    14    15   ar
    27    15    16    1
    28    15    17   ar
    29    17    11   ar
    30     9     1    1
    31     9     4    1
    32    31    26   ar
    33    18    22    1
    34    21    23    1
@<TRIPOS>MOLECULE
*****
 31 34 0 0 0
SMALL
GASTEIGER

@<TRIPOS>ATOM
      1 C          66.1031   92.8441   12.5553 C.2     1  UNL1        0.1078
      2 N          66.8150   93.4521   11.3834 N.2     1  UNL1       -0.1481
      3 N          66.0183   93.1492   10.1491 N.2     1  UNL1       -0.1516
      4 C          64.8140   92.3541   10.5582 C.2     1  UNL1        0.0979
      5 C          63.6765   91.7774    9.7687 C.3     1  UNL1        0.1651
      6 C          62.5913   91.0121   10.4664 C.2     1  UNL1        0.3110
      7 N          62.6437   90.8235   11.9536 N.2     1  UNL1       -0.0399
      8 C          63.7813   91.4002   12.7431 C.2     1  UNL1        0.2380
      9 C          64.8664   92.1655   12.0454 C.2     1  UNL1        0.0820
     10 C          65.0687   92.3023   17.6186 C.3     1  UNL1        0.0521
     11 C          66.0324   92.6333   16.5178 C.ar    1  UNL1        0.0590
     12 C          65.5860   92.5732   15.0870 C.ar    1  UNL1        0.0163
     13 C          66.5495   92.9042   13.9861 C.ar    1  UNL1        0.0219
     14 C          67.9596   93.2953   14.3161 C.ar    1  UNL1        0.0163
     15 C          68.4060   93.3554   15.7469 C.ar    1  UNL1        0.0590
     16 C          69.8160   93.7465   16.0767 C.3     1  UNL1        0.0521
     17 N          67.4424   93.0244   16.8477 N.ar    1  UNL1       -0.2540
     18 N          61.4537   90.4353    9.6769 N.am    1  UNL1       -0.1565
     19 C          61.3677   88.9539    9.4581 C.2     1  UNL1        0.3925
     20 O          62.4194   88.0492   10.0287 O.2     1  UNL1       -0.2238
     21 N          60.2302   88.3771    8.6686 N.am    1  UNL1       -0.2666
     22 H          60.7635   91.0291    9.3024 H       1  UNL1        0.3027
     23 H          59.5400   88.9709    8.2941 H       1  UNL1        0.1533
     24 C          60.1442   86.8956    8.4498 C.3     1  UNL1        0.0977
     25 C          58.9741   86.3128    7.7141 C.3     1  UNL1        0.0263
     26 C          61.2284   85.9970    8.9665 C.ar    1  UNL1       -0.0044
     27 C          61.2641   85.6234   10.4189 C.ar    1  UNL1       -0.0027
     28 C          62.3482   84.7248   10.9357 C.ar    1  UNL1       -0.0003
     29 C          63.3966   84.1997   10.0002 C.ar    1  UNL1       -0.0000
     30 C          63.3609   84.5733    8.5479 C.ar    1  UNL1       -0.0003
     31 C          62.2768   85.4719    8.0310 C.ar    1  UNL1       -0.0027
@<TRIPOS>BOND
     1    10    11    1
     2    11    12   ar
     3    12    13   ar
     4    13     1    1
     5     1     2    2
     6     2     3    1
     7     3     4    2
     8     4     5    1
     9     5     6    1
    10     6    18    1
    11    18    19   am
    12    19    20    2
    13    19    21   am
    14    21    24    1
    15    24    25    1
    16    24    26    1
    17    26    27   ar
    18    27    28   ar
    19    28    29   ar
    20    29    30   ar
    21    30    31   ar
    22     6     7    2
    23     7     8    1
    24     8     9    2
    25    13    14   ar
    26    14    15   ar
    27    15    16    1
    28    15    17   ar
    29    17    11   ar
    30     9     1    1
    31     9     4    1
    32    31    26   ar
    33    18    22    1
    34    21    23    1
@<TRIPOS>MOLECULE
*****
 31 34 0 0 0
SMALL
GASTEIGER

@<TRIPOS>ATOM
      1 C          63.8303   91.3372   11.0261 C.2     1  UNL1        0.1078
      2 N          63.0872   91.5759    9.7451 N.2     1  UNL1       -0.1481
      3 N          62.2409   90.3688    9.4684 N.2     1  UNL1       -0.1516
      4 C          62.4609   89.3840   10.5783 C.2     1  UNL1        0.0979
      5 C          61.8937   88.0197   10.8366 C.3     1  UNL1        0.1651
      6 C          62.3088   87.2538   12.0577 C.2     1  UNL1        0.3110
      7 N          63.2911   87.8524   13.0205 N.2     1  UNL1       -0.0399
      8 C          63.8583   89.2167   12.7621 C.2     1  UNL1        0.2380
      9 C          63.4432   89.9825   11.5410 C.2     1  UNL1        0.0820
     10 C          66.7390   95.6383   10.8279 C.3     1  UNL1        0.0521
     11 C          66.2460   94.4370   11.5788 C.ar    1  UNL1        0.0590
     12 C          65.2847   93.4877   10.9271 C.ar    1  UNL1        0.0163
     13 C          64.7916   92.2864   11.6778 C.ar    1  UNL1        0.0219
     14 C          65.2600   92.0343   13.0804 C.ar    1  UNL1        0.0163
     15 C          66.2214   92.9836   13.7321 C.ar    1  UNL1        0.0590
     16 C          66.6897   92.7314   15.1346 C.3     1  UNL1        0.0521
     17 N          66.7144   94.1849   12.9813 N.ar    1  UNL1       -0.2540
     18 N          61.7416   85.8894   12.3162 N.am    1  UNL1       -0.1565
     19 C          62.6605   84.7214   12.5193 C.2     1  UNL1        0.3925
     20 O          64.1466   84.9177   12.4640 O.2     1  UNL1       -0.2238
     21 N          62.0933   83.3570   12.7777 N.am    1  UNL1       -0.2666
     22 H          60.7662   85.7606   12.3524 H       1  UNL1        0.3027
     23 H          61.1180   83.2281   12.8140 H       1  UNL1        0.1533
     24 C          63.0122   82.1889   12.9808 C.3     1  UNL1        0.0977
     25 C          64.0160   82.2093   14.0954 C.3     1  UNL1        0.0263
     26 C          62.9274   81.0006   12.0695 C.ar    1  UNL1       -0.0044
     27 C          63.1628   81.1661   10.5973 C.ar    1  UNL1       -0.0027
     28 C          63.0779   79.9778    9.6860 C.ar    1  UNL1       -0.0003
     29 C          62.7578   78.6239   10.2467 C.ar    1  UNL1       -0.0000
     30 C          62.5224   78.4583   11.7189 C.ar    1  UNL1       -0.0003
     31 C          62.6072   79.6467   12.6303 C.ar    1  UNL1       -0.0027
@<TRIPOS>BOND
     1    10    11    1
     2    11    12   ar
     3    12    13   ar
     4    13     1    1
     5     1     2    2
     6     2     3    1
     7     3     4    2
     8     4     5    1
     9     5     6    1
    10     6    18    1
    11    18    19   am
    12    19    20    2
    13    19    21   am
    14    21    24    1
    15    24    25    1
    16    24    26    1
    17    26    27   ar
    18    27    28   ar
    19    28    29   ar
    20    29    30   ar
    21    30    31   ar
    22     6     7    2
    23     7     8    1
    24     8     9    2
    25    13    14   ar
    26    14    15   ar
    27    15    16    1
    28    15    17   ar
    29    17    11   ar
    30     9     1    1
    31     9     4    1
    32    31    26   ar
    33    18    22    1
    34    21    23    1
