@<TRIPOS>MOLECULE
*****
 25 27 0 0 0
SMALL
GASTEIGER

@<TRIPOS>ATOM
      1 C          63.3568   89.4967   16.4097 C.3     1  UNL1        0.2226
      2 C          63.0040   88.2078   17.0911 C.3     1  UNL1        0.1201
      3 C          63.6188   83.0034   14.1695 C.2     1  UNL1        0.4049
      4 O          64.6198   82.8803   13.0592 O.2     1  UNL1       -0.2262
      5 N          63.4651   84.3045   14.8999 N.am    1  UNL1       -0.2432
      6 C          62.4641   84.4276   16.0102 C.3     1  UNL1        0.1141
      7 C          62.3104   85.7287   16.7406 C.3     1  UNL1        0.0941
      8 N          63.1577   86.9067   16.3607 N.3     1  UNL1       -0.2666
      9 C          64.1587   86.7836   15.2504 C.3     1  UNL1        0.0941
     10 C          64.3124   85.4825   14.5200 C.3     1  UNL1        0.1141
     11 O          62.7716   81.8254   14.5494 O.3     1  UNL1       -0.4345
     12 C          60.5423   80.5488   14.1610 C.3     1  UNL1        0.0513
     13 C          61.6923   81.3480   13.6235 C.3     1  UNL1        0.2102
     14 O          62.8926   89.7550   15.0069 O.3     1  UNL1       -0.4740
     15 C          63.7341   90.5793   14.0782 C.ar    1  UNL1        0.1387
     16 C          64.9757   91.2498   14.5870 C.ar    1  UNL1        0.0384
     17 C          65.8172   92.0742   13.6584 C.ar    1  UNL1        0.0207
     18 C          65.4172   92.2279   12.2209 C.ar    1  UNL1        0.0657
     19 C          64.1756   91.5573   11.7121 C.ar    1  UNL1        0.0207
     20 C          63.3341   90.7330   12.6408 C.ar    1  UNL1        0.0384
     21 N          66.2586   93.0522   11.2922 N.ar    1  UNL1       -0.2864
     22 C          67.1664   92.5236   10.2215 C.ar    1  UNL1        0.1022
     23 C          67.8089   93.6945    9.5387 C.ar    1  UNL1        0.1196
     24 N          67.2982   94.9468   10.1876 N.ar    1  UNL1       -0.2220
     25 C          66.3401   94.5498   11.2713 C.ar    1  UNL1        0.1828
@<TRIPOS>BOND
     1    12    13    1
     2    13    11    1
     3    11     3    1
     4     3     4    2
     5     3     5   am
     6     5     6    1
     7     6     7    1
     8     7     8    1
     9     8     2    1
    10     2     1    1
    11     1    14    1
    12    14    15    1
    13    15    16   ar
    14    16    17   ar
    15    17    18   ar
    16    18    21    1
    17    21    22   ar
    18    22    23   ar
    19    23    24   ar
    20    24    25   ar
    21    18    19   ar
    22    19    20   ar
    23     8     9    1
    24     9    10    1
    25    10     5    1
    26    20    15   ar
    27    25    21   ar
@<TRIPOS>MOLECULE
*****
 25 27 0 0 0
SMALL
GASTEIGER

@<TRIPOS>ATOM
      1 C          63.1120   89.5568   16.3805 C.3     1  UNL1        0.2226
      2 C          63.1181   88.2556   17.1266 C.3     1  UNL1        0.1201
      3 C          63.5910   83.0803   14.1277 C.2     1  UNL1        0.4049
      4 O          62.7375   81.9089   14.5141 O.2     1  UNL1       -0.2262
      5 N          63.4728   84.3741   14.8774 N.am    1  UNL1       -0.2432
      6 C          64.3262   85.5455   14.4911 C.3     1  UNL1        0.1141
      7 C          64.2080   86.8393   15.2408 C.3     1  UNL1        0.0941
      8 N          63.2363   86.9618   16.3769 N.3     1  UNL1       -0.2666
      9 C          62.3828   85.7903   16.7632 C.3     1  UNL1        0.0941
     10 C          62.5011   84.4965   16.0135 C.3     1  UNL1        0.1141
     11 O          64.5627   82.9579   12.9917 O.3     1  UNL1       -0.4345
     12 C          64.2695   83.0751   10.4128 C.3     1  UNL1        0.0513
     13 C          64.1335   82.3217   11.7028 C.3     1  UNL1        0.2102
     14 O          62.8535   89.5731   14.9031 O.3     1  UNL1       -0.4740
     15 C          63.6835   90.4428   14.0059 C.ar    1  UNL1        0.1387
     16 C          64.9208   91.1037   14.5373 C.ar    1  UNL1        0.0384
     17 C          65.7508   91.9733   13.6402 C.ar    1  UNL1        0.0207
     18 C          65.3435   92.1821   12.2117 C.ar    1  UNL1        0.0657
     19 C          64.1061   91.5213   11.6804 C.ar    1  UNL1        0.0207
     20 C          63.2762   90.6516   12.5775 C.ar    1  UNL1        0.0384
     21 N          66.1735   93.0518   11.3146 N.ar    1  UNL1       -0.2864
     22 C          67.0219   92.5822   10.1701 C.ar    1  UNL1        0.1022
     23 C          67.6735   93.7839    9.5526 C.ar    1  UNL1        0.1196
     24 N          67.2278   94.9962   10.3155 N.ar    1  UNL1       -0.2220
     25 C          66.3007   94.5436   11.4044 C.ar    1  UNL1        0.1828
@<TRIPOS>BOND
     1    12    13    1
     2    13    11    1
     3    11     3    1
     4     3     4    2
     5     3     5   am
     6     5     6    1
     7     6     7    1
     8     7     8    1
     9     8     2    1
    10     2     1    1
    11     1    14    1
    12    14    15    1
    13    15    16   ar
    14    16    17   ar
    15    17    18   ar
    16    18    21    1
    17    21    22   ar
    18    22    23   ar
    19    23    24   ar
    20    24    25   ar
    21    18    19   ar
    22    19    20   ar
    23     8     9    1
    24     9    10    1
    25    10     5    1
    26    20    15   ar
    27    25    21   ar
@<TRIPOS>MOLECULE
*****
 25 27 0 0 0
SMALL
GASTEIGER

@<TRIPOS>ATOM
      1 C          61.5571   89.3590   10.1826 C.3     1  UNL1        0.2226
      2 C          61.1603   88.0816    9.5037 C.3     1  UNL1        0.1201
      3 C          63.6791   82.8947   11.1623 C.2     1  UNL1        0.4049
      4 O          64.5011   82.1126   10.1813 O.2     1  UNL1       -0.2262
      5 N          63.0494   84.1914   10.7477 N.am    1  UNL1       -0.2432
      6 C          62.2274   84.9735   11.7288 C.3     1  UNL1        0.1141
      7 C          61.5977   86.2703   11.3141 C.3     1  UNL1        0.0941
      8 N          61.7900   86.7849    9.9184 N.3     1  UNL1       -0.2666
      9 C          62.6120   86.0028    8.9373 C.3     1  UNL1        0.0941
     10 C          63.2417   84.7060    9.3519 C.3     1  UNL1        0.1141
     11 O          63.4868   82.3801   12.5581 O.3     1  UNL1       -0.4345
     12 C          61.6870   81.1652   13.9847 C.3     1  UNL1        0.0513
     13 C          62.6115   81.1869   12.8036 C.3     1  UNL1        0.2102
     14 O          61.6952   89.4034   11.6755 O.3     1  UNL1       -0.4740
     15 C          62.8993   90.0453   12.2986 C.ar    1  UNL1        0.1387
     16 C          63.4382   89.5255   13.5983 C.ar    1  UNL1        0.0384
     17 C          64.6423   90.1674   14.2214 C.ar    1  UNL1        0.0207
     18 C          65.3074   91.3291   13.5447 C.ar    1  UNL1        0.0657
     19 C          64.7684   91.8490   12.2449 C.ar    1  UNL1        0.0207
     20 C          63.5644   91.2071   11.6219 C.ar    1  UNL1        0.0384
     21 N          66.5114   91.9711   14.1677 N.ar    1  UNL1       -0.2864
     22 C          66.5248   92.7809   15.4303 C.ar    1  UNL1        0.1022
     23 C          67.9351   93.2262   15.6805 C.ar    1  UNL1        0.1196
     24 N          68.7934   92.6916   14.5725 N.ar    1  UNL1       -0.2220
     25 C          67.9135   91.9159   13.6376 C.ar    1  UNL1        0.1828
@<TRIPOS>BOND
     1    12    13    1
     2    13    11    1
     3    11     3    1
     4     3     4    2
     5     3     5   am
     6     5     6    1
     7     6     7    1
     8     7     8    1
     9     8     2    1
    10     2     1    1
    11     1    14    1
    12    14    15    1
    13    15    16   ar
    14    16    17   ar
    15    17    18   ar
    16    18    21    1
    17    21    22   ar
    18    22    23   ar
    19    23    24   ar
    20    24    25   ar
    21    18    19   ar
    22    19    20   ar
    23     8     9    1
    24     9    10    1
    25    10     5    1
    26    20    15   ar
    27    25    21   ar
@<TRIPOS>MOLECULE
*****
 25 27 0 0 0
SMALL
GASTEIGER

@<TRIPOS>ATOM
      1 C          61.3646   88.1286   10.6449 C.3     1  UNL1        0.2226
      2 C          62.0875   86.9179   10.1334 C.3     1  UNL1        0.1201
      3 C          63.7394   82.5808   13.9361 C.2     1  UNL1        0.4049
      4 O          64.1807   82.9303   15.3264 O.2     1  UNL1       -0.2262
      5 N          63.3265   83.6651   12.9854 N.am    1  UNL1       -0.2432
      6 C          62.8852   83.3155   11.5951 C.3     1  UNL1        0.1141
      7 C          62.4722   84.3998   10.6444 C.3     1  UNL1        0.0941
      8 N          62.5005   85.8336   11.0841 N.3     1  UNL1       -0.2666
      9 C          62.9417   86.1832   12.4744 C.3     1  UNL1        0.0941
     10 C          63.3547   85.0989   13.4251 C.3     1  UNL1        0.1141
     11 O          63.7112   81.1470   13.4964 O.3     1  UNL1       -0.4345
     12 C          61.1816   81.0175   14.0747 C.3     1  UNL1        0.0513
     13 C          62.4415   80.3552   13.6014 C.3     1  UNL1        0.2102
     14 O          61.8516   89.5008   10.2847 O.3     1  UNL1       -0.4740
     15 C          62.8308   90.2068   11.1751 C.ar    1  UNL1        0.1387
     16 C          63.6985   91.2971   10.6200 C.ar    1  UNL1        0.0384
     17 C          64.6777   92.0031   11.5104 C.ar    1  UNL1        0.0207
     18 C          64.7892   91.6187   12.9560 C.ar    1  UNL1        0.0657
     19 C          63.9214   90.5283   13.5112 C.ar    1  UNL1        0.0207
     20 C          62.9423   89.8224   12.6208 C.ar    1  UNL1        0.0384
     21 N          65.7683   92.3246   13.8464 N.ar    1  UNL1       -0.2864
     22 C          66.0923   91.9596   15.2648 C.ar    1  UNL1        0.1022
     23 C          67.1196   92.9289   15.7699 C.ar    1  UNL1        0.1196
     24 N          67.4305   93.8930   14.6635 N.ar    1  UNL1       -0.2220
     25 C          66.5954   93.5195   13.4749 C.ar    1  UNL1        0.1828
@<TRIPOS>BOND
     1    12    13    1
     2    13    11    1
     3    11     3    1
     4     3     4    2
     5     3     5   am
     6     5     6    1
     7     6     7    1
     8     7     8    1
     9     8     2    1
    10     2     1    1
    11     1    14    1
    12    14    15    1
    13    15    16   ar
    14    16    17   ar
    15    17    18   ar
    16    18    21    1
    17    21    22   ar
    18    22    23   ar
    19    23    24   ar
    20    24    25   ar
    21    18    19   ar
    22    19    20   ar
    23     8     9    1
    24     9    10    1
    25    10     5    1
    26    20    15   ar
    27    25    21   ar
@<TRIPOS>MOLECULE
*****
 25 27 0 0 0
SMALL
GASTEIGER

@<TRIPOS>ATOM
      1 C          60.5234   88.5569    9.8447 C.3     1  UNL1        0.2226
      2 C          61.0172   87.3431    9.1148 C.3     1  UNL1        0.1201
      3 C          63.9180   83.0212   12.0993 C.2     1  UNL1        0.4049
      4 O          64.9258   82.1664   11.3897 O.2     1  UNL1       -0.2262
      5 N          63.1928   84.1017   11.3531 N.am    1  UNL1       -0.2432
      6 C          62.1850   84.9565   12.0627 C.3     1  UNL1        0.1141
      7 C          61.4598   86.0370   11.3166 C.3     1  UNL1        0.0941
      8 N          61.7424   86.2626    9.8609 N.3     1  UNL1       -0.2666
      9 C          62.7502   85.4078    9.1513 C.3     1  UNL1        0.0941
     10 C          63.4754   84.3273    9.8974 C.3     1  UNL1        0.1141
     11 O          63.6354   82.7956   13.5550 O.3     1  UNL1       -0.4345
     12 C          65.3191   84.6467   14.2540 C.3     1  UNL1        0.0513
     13 C          64.1499   83.7646   14.5779 C.3     1  UNL1        0.2102
     14 O          61.1596   89.8923    9.5957 O.3     1  UNL1       -0.4740
     15 C          62.2627   90.3759   10.4898 C.ar    1  UNL1        0.1387
     16 C          63.2040   91.4410   10.0106 C.ar    1  UNL1        0.0384
     17 C          64.3071   91.9246   10.9047 C.ar    1  UNL1        0.0207
     18 C          64.4689   91.3432   12.2779 C.ar    1  UNL1        0.0657
     19 C          63.5275   90.2781   12.7571 C.ar    1  UNL1        0.0207
     20 C          62.4245   89.7945   11.8630 C.ar    1  UNL1        0.0384
     21 N          65.5719   91.8267   13.1720 N.ar    1  UNL1       -0.2864
     22 C          65.9289   91.2633   14.5156 C.ar    1  UNL1        0.1022
     23 C          67.0892   92.0470   15.0534 C.ar    1  UNL1        0.1196
     24 N          67.4494   93.0948   14.0423 N.ar    1  UNL1       -0.2220
     25 C          66.5116   92.9587   12.8795 C.ar    1  UNL1        0.1828
@<TRIPOS>BOND
     1    12    13    1
     2    13    11    1
     3    11     3    1
     4     3     4    2
     5     3     5   am
     6     5     6    1
     7     6     7    1
     8     7     8    1
     9     8     2    1
    10     2     1    1
    11     1    14    1
    12    14    15    1
    13    15    16   ar
    14    16    17   ar
    15    17    18   ar
    16    18    21    1
    17    21    22   ar
    18    22    23   ar
    19    23    24   ar
    20    24    25   ar
    21    18    19   ar
    22    19    20   ar
    23     8     9    1
    24     9    10    1
    25    10     5    1
    26    20    15   ar
    27    25    21   ar
@<TRIPOS>MOLECULE
*****
 25 27 0 0 0
SMALL
GASTEIGER

@<TRIPOS>ATOM
      1 C          62.5276   87.3527   16.8991 C.3     1  UNL1        0.2226
      2 C          63.4423   86.1658   16.9669 C.3     1  UNL1        0.1201
      3 C          63.5865   82.2272   12.4429 C.2     1  UNL1        0.4049
      4 O          62.5481   81.1483   12.3543 O.2     1  UNL1       -0.2262
      5 N          63.5504   83.2118   13.5739 N.am    1  UNL1       -0.2432
      6 C          64.5888   84.2907   13.6624 C.3     1  UNL1        0.1141
      7 C          64.5527   85.2753   14.7934 C.3     1  UNL1        0.0941
      8 N          63.4783   85.1811   15.8359 N.3     1  UNL1       -0.2666
      9 C          62.4400   84.1023   15.7473 C.3     1  UNL1        0.0941
     10 C          62.4760   83.1176   14.6163 C.3     1  UNL1        0.1141
     11 O          64.6609   82.3214   11.4004 O.3     1  UNL1       -0.4345
     12 C          63.2491   84.0753   10.1039 C.3     1  UNL1        0.0513
     13 C          64.4935   83.2476   10.2325 C.3     1  UNL1        0.2102
     14 O          63.0502   88.7216   17.2198 O.3     1  UNL1       -0.4740
     15 C          63.6115   89.5847   16.1289 C.ar    1  UNL1        0.1387
     16 C          63.8520   89.0081   14.7652 C.ar    1  UNL1        0.0384
     17 C          64.4133   89.8713   13.6743 C.ar    1  UNL1        0.0207
     18 C          64.7340   91.3110   13.9471 C.ar    1  UNL1        0.0657
     19 C          64.4935   91.8875   15.3108 C.ar    1  UNL1        0.0207
     20 C          63.9322   91.0244   16.4017 C.ar    1  UNL1        0.0384
     21 N          65.2953   92.1741   12.8562 N.ar    1  UNL1       -0.2864
     22 C          64.9520   92.0873   11.3986 C.ar    1  UNL1        0.1022
     23 C          65.7429   93.1351   10.6729 C.ar    1  UNL1        0.1196
     24 N          66.5750   93.8695   11.6822 N.ar    1  UNL1       -0.2220
     25 C          66.2983   93.2755   13.0315 C.ar    1  UNL1        0.1828
@<TRIPOS>BOND
     1    12    13    1
     2    13    11    1
     3    11     3    1
     4     3     4    2
     5     3     5   am
     6     5     6    1
     7     6     7    1
     8     7     8    1
     9     8     2    1
    10     2     1    1
    11     1    14    1
    12    14    15    1
    13    15    16   ar
    14    16    17   ar
    15    17    18   ar
    16    18    21    1
    17    21    22   ar
    18    22    23   ar
    19    23    24   ar
    20    24    25   ar
    21    18    19   ar
    22    19    20   ar
    23     8     9    1
    24     9    10    1
    25    10     5    1
    26    20    15   ar
    27    25    21   ar
@<TRIPOS>MOLECULE
*****
 25 27 0 0 0
SMALL
GASTEIGER

@<TRIPOS>ATOM
      1 C          62.4127   87.3533   17.0127 C.3     1  UNL1        0.2226
      2 C          63.1889   86.0703   17.0493 C.3     1  UNL1        0.1201
      3 C          63.7287   82.7477   12.0825 C.2     1  UNL1        0.4049
      4 O          64.9514   82.8765   11.2233 O.2     1  UNL1       -0.2262
      5 N          63.5938   83.5784   13.3242 N.am    1  UNL1       -0.2432
      6 C          62.3711   83.4496   14.1835 C.3     1  UNL1        0.1141
      7 C          62.2361   84.2803   15.4252 C.3     1  UNL1        0.0941
      8 N          63.3238   85.2397   15.8076 N.3     1  UNL1       -0.2666
      9 C          64.5465   85.3684   14.9484 C.3     1  UNL1        0.0941
     10 C          64.6815   84.5378   13.7067 C.3     1  UNL1        0.1141
     11 O          62.6410   81.7883   11.7001 O.3     1  UNL1       -0.4345
     12 C          62.3304   79.9712   13.5309 C.3     1  UNL1        0.0513
     13 C          62.7190   80.3545   12.1336 C.3     1  UNL1        0.2102
     14 O          63.0983   88.6535   17.3122 O.3     1  UNL1       -0.4740
     15 C          63.5993   89.5131   16.1897 C.ar    1  UNL1        0.1387
     16 C          63.8776   90.9680   16.4258 C.ar    1  UNL1        0.0384
     17 C          64.3786   91.8277   15.3033 C.ar    1  UNL1        0.0207
     18 C          64.6014   91.2324   13.9446 C.ar    1  UNL1        0.0657
     19 C          64.3231   89.7774   13.7085 C.ar    1  UNL1        0.0207
     20 C          63.8221   88.9178   14.8310 C.ar    1  UNL1        0.0384
     21 N          65.1024   92.0920   12.8222 N.ar    1  UNL1       -0.2864
     22 C          66.0799   93.2230   12.9464 C.ar    1  UNL1        0.1022
     23 C          66.2955   93.8016   11.5793 C.ar    1  UNL1        0.1196
     24 N          65.4513   93.0280   10.6102 N.ar    1  UNL1       -0.2220
     25 C          64.7140   91.9715   11.3784 C.ar    1  UNL1        0.1828
@<TRIPOS>BOND
     1    12    13    1
     2    13    11    1
     3    11     3    1
     4     3     4    2
     5     3     5   am
     6     5     6    1
     7     6     7    1
     8     7     8    1
     9     8     2    1
    10     2     1    1
    11     1    14    1
    12    14    15    1
    13    15    16   ar
    14    16    17   ar
    15    17    18   ar
    16    18    21    1
    17    21    22   ar
    18    22    23   ar
    19    23    24   ar
    20    24    25   ar
    21    18    19   ar
    22    19    20   ar
    23     8     9    1
    24     9    10    1
    25    10     5    1
    26    20    15   ar
    27    25    21   ar
@<TRIPOS>MOLECULE
*****
 25 27 0 0 0
SMALL
GASTEIGER

@<TRIPOS>ATOM
      1 C          64.5736   88.2682   14.6794 C.3     1  UNL1        0.2226
      2 C          63.9451   87.2934   15.6305 C.3     1  UNL1        0.1201
      3 C          62.6611   81.7239   13.8054 C.2     1  UNL1        0.4049
      4 O          61.5291   80.9697   14.4375 O.2     1  UNL1       -0.2262
      5 N          62.9821   83.1163   14.2616 N.am    1  UNL1       -0.2432
      6 C          64.1142   83.8704   13.6295 C.3     1  UNL1        0.1141
      7 C          64.4352   85.2628   14.0858 C.3     1  UNL1        0.0941
      8 N          63.6241   85.9010   15.1742 N.3     1  UNL1       -0.2666
      9 C          62.4921   85.1469   15.8064 C.3     1  UNL1        0.0941
     10 C          62.1711   83.7545   15.3501 C.3     1  UNL1        0.1141
     11 O          63.4722   81.0856   12.7169 O.3     1  UNL1       -0.4345
     12 C          63.8920   82.2572   10.4363 C.3     1  UNL1        0.0513
     13 C          63.1008   81.3019   11.2798 C.3     1  UNL1        0.2102
     14 O          63.7413   89.3470   14.0521 O.3     1  UNL1       -0.4740
     15 C          62.9066   89.0430   12.8434 C.ar    1  UNL1        0.1387
     16 C          61.9525   90.0716   12.3128 C.ar    1  UNL1        0.0384
     17 C          61.1179   89.7677   11.1040 C.ar    1  UNL1        0.0207
     18 C          61.2374   88.4351   10.4259 C.ar    1  UNL1        0.0657
     19 C          62.1916   87.4064   10.9565 C.ar    1  UNL1        0.0207
     20 C          63.0262   87.7104   12.1652 C.ar    1  UNL1        0.0384
     21 N          60.4028   88.1311    9.2172 N.ar    1  UNL1       -0.2864
     22 C          59.9414   86.7713    8.7836 C.ar    1  UNL1        0.1022
     23 C          59.1365   86.9333    7.5283 C.ar    1  UNL1        0.1196
     24 N          59.1005   88.3933    7.1860 N.ar    1  UNL1       -0.2220
     25 C          59.8831   89.1336    8.2298 C.ar    1  UNL1        0.1828
@<TRIPOS>BOND
     1    12    13    1
     2    13    11    1
     3    11     3    1
     4     3     4    2
     5     3     5   am
     6     5     6    1
     7     6     7    1
     8     7     8    1
     9     8     2    1
    10     2     1    1
    11     1    14    1
    12    14    15    1
    13    15    16   ar
    14    16    17   ar
    15    17    18   ar
    16    18    21    1
    17    21    22   ar
    18    22    23   ar
    19    23    24   ar
    20    24    25   ar
    21    18    19   ar
    22    19    20   ar
    23     8     9    1
    24     9    10    1
    25    10     5    1
    26    20    15   ar
    27    25    21   ar
@<TRIPOS>MOLECULE
*****
 25 27 0 0 0
SMALL
GASTEIGER

@<TRIPOS>ATOM
      1 C          59.6378   89.7983    5.8758 C.3     1  UNL1        0.2226
      2 C          59.0139   89.3995    7.1803 C.3     1  UNL1        0.1201
      3 C          62.1541   86.1713   11.1449 C.2     1  UNL1        0.4049
      4 O          62.8811   86.8577   12.2630 O.2     1  UNL1       -0.2262
      5 N          61.3691   86.9784   10.1537 N.am    1  UNL1       -0.2432
      6 C          60.6421   86.2920    9.0356 C.3     1  UNL1        0.1141
      7 C          59.8571   87.0990    8.0445 C.3     1  UNL1        0.0941
      8 N          59.7990   88.5924    8.1715 N.3     1  UNL1       -0.2666
      9 C          60.5259   89.2789    9.2896 C.3     1  UNL1        0.0941
     10 C          61.3110   88.4718   10.2807 C.3     1  UNL1        0.1141
     11 O          62.2122   84.6779   11.0179 O.3     1  UNL1       -0.4345
     12 C          64.2228   83.6104   12.2703 C.3     1  UNL1        0.0513
     13 C          62.7469   83.8493   12.1482 C.3     1  UNL1        0.2102
     14 O          59.3138   91.1297    5.2655 O.3     1  UNL1       -0.4740
     15 C          60.2351   91.7316    4.2462 C.ar    1  UNL1        0.1387
     16 C          59.7405   92.8164    3.3360 C.ar    1  UNL1        0.0384
     17 C          60.6618   93.4182    2.3166 C.ar    1  UNL1        0.0207
     18 C          62.0777   92.9352    2.2075 C.ar    1  UNL1        0.0657
     19 C          62.5723   91.8503    3.1178 C.ar    1  UNL1        0.0207
     20 C          61.6510   91.2485    4.1371 C.ar    1  UNL1        0.0384
     21 N          62.9990   93.5370    1.1882 N.ar    1  UNL1       -0.2864
     22 C          64.4771   93.7385    1.3456 C.ar    1  UNL1        0.1022
     23 C          64.9956   94.3690    0.0873 C.ar    1  UNL1        0.1196
     24 N          63.8379   94.5572   -0.8479 N.ar    1  UNL1       -0.2220
     25 C          62.6040   94.0430   -0.1675 C.ar    1  UNL1        0.1828
@<TRIPOS>BOND
     1    12    13    1
     2    13    11    1
     3    11     3    1
     4     3     4    2
     5     3     5   am
     6     5     6    1
     7     6     7    1
     8     7     8    1
     9     8     2    1
    10     2     1    1
    11     1    14    1
    12    14    15    1
    13    15    16   ar
    14    16    17   ar
    15    17    18   ar
    16    18    21    1
    17    21    22   ar
    18    22    23   ar
    19    23    24   ar
    20    24    25   ar
    21    18    19   ar
    22    19    20   ar
    23     8     9    1
    24     9    10    1
    25    10     5    1
    26    20    15   ar
    27    25    21   ar
