@<TRIPOS>MOLECULE
*****
 34 38 0 0 0
SMALL
GASTEIGER

@<TRIPOS>ATOM
      1 N          64.6371   91.5351   14.3209 N.3     1  UNL1       -0.2752
      2 C          64.3929   91.6065   15.7992 C.3     1  UNL1        0.0578
      3 C          65.5302   92.3615   16.4210 C.3     1  UNL1        0.0173
      4 C          66.4772   92.7568   15.3269 C.3     1  UNL1        0.0173
      5 C          65.9253   92.2461   14.0290 C.3     1  UNL1        0.0578
      6 C          65.1452   91.6257   12.8951 C.3     1  UNL1        0.0203
      7 C          63.8810   90.9506   13.3379 C.3     1  UNL1        0.0250
      8 C          63.5049   90.9410   14.7900 C.3     1  UNL1        0.0203
      9 C          62.9929   90.2851   12.3287 C.ar    1  UNL1       -0.0224
     10 C          63.4485   90.1436   10.9065 C.ar    1  UNL1       -0.0046
     11 C          62.5605   89.4781    9.8973 C.ar    1  UNL1       -0.0046
     12 C          61.2170   88.9543   10.3102 C.ar    1  UNL1       -0.0228
     13 C          60.7614   89.0958   11.7323 C.ar    1  UNL1       -0.0046
     14 C          61.6494   89.7613   12.7415 C.ar    1  UNL1       -0.0046
     15 C          60.3290   88.2888    9.3009 C.3     1  UNL1        0.0189
     16 C          60.0191   89.3772    8.3164 C.3     1  UNL1        0.0044
     17 C          60.4269   87.0010   10.0638 C.3     1  UNL1        0.0044
     18 C          59.4910   87.3314    8.5063 C.3     1  UNL1        0.0044
     19 C          63.7491   90.8696   13.3117 C.3     1  UNL1        0.0729
     20 C          63.5993   89.3771   13.3129 C.3     1  UNL1        0.0294
     21 C          64.6170   88.5219   14.0075 C.3     1  UNL1        0.0666
     22 S          64.2001   87.2320   14.6498 S.3     1  UNL1       -0.0756
     23 C          62.9329   83.9375   13.0357 C.ar    1  UNL1        0.2029
     24 N          62.4870   84.9477   12.0206 N.ar    1  UNL1       -0.1250
     25 N          62.9075   86.3048   12.5016 N.ar    1  UNL1       -0.1220
     26 C          63.6132   86.1333   13.8141 C.ar    1  UNL1        0.1933
     27 N          63.6289   84.6701   14.1441 N.ar    1  UNL1       -0.2860
     28 C          64.1147   83.7389   15.2151 C.3     1  UNL1        0.1341
     29 C          63.8332   81.9998   10.5691 C.3     1  UNL1        0.0556
     30 C          63.1340   81.5641   11.8226 C.ar    1  UNL1        0.1001
     31 N          62.7258   80.1612   12.1623 N.ar    1  UNL1       -0.2085
     32 C          62.0598   80.1849   13.5061 C.ar    1  UNL1        0.2849
     33 O          62.0563   81.6023   13.9968 O.2     1  UNL1       -0.4283
     34 C          62.7202   82.4547   12.9564 C.ar    1  UNL1        0.1964
@<TRIPOS>BOND
     1    29    30    1
     2    30    31   ar
     3    31    32   ar
     4    32    33   ar
     5    33    34   ar
     6    34    23    1
     7    23    24   ar
     8    24    25   ar
     9    25    26   ar
    10    26    22    1
    11    22    21    1
    12    21    20    1
    13    20    19    1
    14    19     1    1
    15     1     2    1
    16     2     3    1
    17     3     4    1
    18     5     4    1
    19     5     6    1
    20     6     7    1
    21     7     9    1
    22     9    10   ar
    23    10    11   ar
    24    11    12   ar
    25    12    15    1
    26    15    16    1
    27    15    17    1
    28    15    18    1
    29    12    13   ar
    30    13    14   ar
    31     7     8    1
    32    26    27   ar
    33    27    28    1
    34    34    30   ar
    35    27    23   ar
    36     5     1    1
    37    14     9   ar
    38     8     2    1
@<TRIPOS>MOLECULE
*****
 34 38 0 0 0
SMALL
GASTEIGER

@<TRIPOS>ATOM
      1 N          64.5105   91.4813   14.1497 N.3     1  UNL1       -0.2752
      2 C          64.2866   91.5373   15.6319 C.3     1  UNL1        0.0578
      3 C          65.4170   92.3113   16.2426 C.3     1  UNL1        0.0173
      4 C          66.3396   92.7337   15.1379 C.3     1  UNL1        0.0173
      5 C          65.7793   92.2208   13.8444 C.3     1  UNL1        0.0578
      6 C          64.9957   91.5924   12.7174 C.3     1  UNL1        0.0203
      7 C          63.7522   90.8883   13.1736 C.3     1  UNL1        0.0250
      8 C          63.3977   90.8607   14.6308 C.3     1  UNL1        0.0203
      9 C          62.8633   90.2117   12.1725 C.ar    1  UNL1       -0.0224
     10 C          63.3590   89.9588   10.7795 C.ar    1  UNL1       -0.0046
     11 C          62.4702   89.2822    9.7784 C.ar    1  UNL1       -0.0046
     12 C          61.0857   88.8586   10.1703 C.ar    1  UNL1       -0.0228
     13 C          60.5900   89.1114   11.5633 C.ar    1  UNL1       -0.0046
     14 C          61.4788   89.7880   12.5643 C.ar    1  UNL1       -0.0046
     15 C          60.1969   88.1820    9.1692 C.3     1  UNL1        0.0189
     16 C          59.8494   89.2709    8.1979 C.3     1  UNL1        0.0044
     17 C          60.3333   86.8909    9.9205 C.3     1  UNL1        0.0044
     18 C          59.3675   87.2130    8.3796 C.3     1  UNL1        0.0044
     19 C          63.6216   90.8048   13.1487 C.3     1  UNL1        0.0729
     20 C          63.5686   89.3071   13.0841 C.3     1  UNL1        0.0294
     21 C          64.4862   88.4866   13.9412 C.3     1  UNL1        0.0666
     22 S          63.9181   87.4949   14.9127 S.3     1  UNL1       -0.0756
     23 C          63.8780   83.8624   13.5459 C.ar    1  UNL1        0.2029
     24 N          64.5361   83.6632   14.8789 N.ar    1  UNL1       -0.1250
     25 N          64.6312   84.9997   15.5532 N.ar    1  UNL1       -0.1220
     26 C          64.0319   86.0249   14.6369 C.ar    1  UNL1        0.1933
     27 N          63.5664   85.3219   13.3962 N.ar    1  UNL1       -0.2860
     28 C          62.9019   85.6232   12.0856 C.3     1  UNL1        0.1341
     29 C          61.8157   81.3658   13.9506 C.3     1  UNL1        0.0556
     30 C          62.6353   81.6427   12.7251 C.ar    1  UNL1        0.1001
     31 N          62.6509   80.8205   11.4706 N.ar    1  UNL1       -0.2085
     32 C          63.6084   81.4600   10.5092 C.ar    1  UNL1        0.2849
     33 O          64.1846   82.6773   11.1696 O.2     1  UNL1       -0.4283
     34 C          63.5832   82.7902   12.5391 C.ar    1  UNL1        0.1964
@<TRIPOS>BOND
     1    29    30    1
     2    30    31   ar
     3    31    32   ar
     4    32    33   ar
     5    33    34   ar
     6    34    23    1
     7    23    24   ar
     8    24    25   ar
     9    25    26   ar
    10    26    22    1
    11    22    21    1
    12    21    20    1
    13    20    19    1
    14    19     1    1
    15     1     2    1
    16     2     3    1
    17     3     4    1
    18     5     4    1
    19     5     6    1
    20     6     7    1
    21     7     9    1
    22     9    10   ar
    23    10    11   ar
    24    11    12   ar
    25    12    15    1
    26    15    16    1
    27    15    17    1
    28    15    18    1
    29    12    13   ar
    30    13    14   ar
    31     7     8    1
    32    26    27   ar
    33    27    28    1
    34    34    30   ar
    35    27    23   ar
    36     5     1    1
    37    14     9   ar
    38     8     2    1
@<TRIPOS>MOLECULE
*****
 34 38 0 0 0
SMALL
GASTEIGER

@<TRIPOS>ATOM
      1 N          66.3176   92.0439   14.5331 N.3     1  UNL1       -0.2752
      2 C          66.2358   92.4476   15.9754 C.3     1  UNL1        0.0578
      3 C          67.6106   92.8462   16.4239 C.3     1  UNL1        0.0173
      4 C          68.5420   92.6888   15.2588 C.3     1  UNL1        0.0173
      5 C          67.7430   92.1930   14.0902 C.3     1  UNL1        0.0578
      6 C          66.7063   91.7048   13.1072 C.3     1  UNL1        0.0203
      7 C          65.3282   91.6060   13.6912 C.3     1  UNL1        0.0250
      8 C          65.0930   91.9774   15.1253 C.3     1  UNL1        0.0203
      9 C          64.1853   91.1358   12.8410 C.ar    1  UNL1       -0.0224
     10 C          62.9515   90.5767   13.4855 C.ar    1  UNL1       -0.0046
     11 C          61.8087   90.1065   12.6353 C.ar    1  UNL1       -0.0046
     12 C          61.8996   90.1954   11.1407 C.ar    1  UNL1       -0.0228
     13 C          63.1334   90.7545   10.4963 C.ar    1  UNL1       -0.0046
     14 C          64.2762   91.2246   11.3464 C.ar    1  UNL1       -0.0046
     15 C          60.7567   89.7252   10.2906 C.3     1  UNL1        0.0189
     16 C          59.5748   90.4814   10.8208 C.3     1  UNL1        0.0044
     17 C          61.6898   88.8285    9.5321 C.3     1  UNL1        0.0044
     18 C          59.8736   89.0519    9.2821 C.3     1  UNL1        0.0044
     19 C          65.1747   91.5737   13.6830 C.3     1  UNL1        0.0729
     20 C          64.4084   90.3438   14.0702 C.3     1  UNL1        0.0294
     21 C          65.1356   89.0581   14.3310 C.3     1  UNL1        0.0666
     22 S          64.3989   87.8816   14.8993 S.3     1  UNL1       -0.0756
     23 C          63.1187   84.7108   13.0629 C.ar    1  UNL1        0.2029
     24 N          62.7491   85.7831   12.0815 N.ar    1  UNL1       -0.1250
     25 N          63.1837   87.1015   12.6499 N.ar    1  UNL1       -0.1220
     26 C          63.8218   86.8439   13.9827 C.ar    1  UNL1        0.1933
     27 N          63.7817   85.3663   14.2379 N.ar    1  UNL1       -0.2860
     28 C          64.1906   84.3689   15.2810 C.3     1  UNL1        0.1341
     29 C          64.2359   82.8353   10.6373 C.3     1  UNL1        0.0556
     30 C          63.3826   82.3788   11.7834 C.ar    1  UNL1        0.1001
     31 N          62.8931   80.9801   12.0157 N.ar    1  UNL1       -0.2085
     32 C          62.0770   80.9777   13.2743 C.ar    1  UNL1        0.2849
     33 O          62.0622   82.3750   13.8197 O.2     1  UNL1       -0.4283
     34 C          62.8691   83.2409   12.8983 C.ar    1  UNL1        0.1964
@<TRIPOS>BOND
     1    29    30    1
     2    30    31   ar
     3    31    32   ar
     4    32    33   ar
     5    33    34   ar
     6    34    23    1
     7    23    24   ar
     8    24    25   ar
     9    25    26   ar
    10    26    22    1
    11    22    21    1
    12    21    20    1
    13    20    19    1
    14    19     1    1
    15     1     2    1
    16     2     3    1
    17     3     4    1
    18     5     4    1
    19     5     6    1
    20     6     7    1
    21     7     9    1
    22     9    10   ar
    23    10    11   ar
    24    11    12   ar
    25    12    15    1
    26    15    16    1
    27    15    17    1
    28    15    18    1
    29    12    13   ar
    30    13    14   ar
    31     7     8    1
    32    26    27   ar
    33    27    28    1
    34    34    30   ar
    35    27    23   ar
    36     5     1    1
    37    14     9   ar
    38     8     2    1
@<TRIPOS>MOLECULE
*****
 34 38 0 0 0
SMALL
GASTEIGER

@<TRIPOS>ATOM
      1 N          61.6089   90.0055   11.2871 N.3     1  UNL1       -0.2752
      2 C          60.2802   89.5829   11.8402 C.3     1  UNL1        0.0578
      3 C          59.4193   89.1432   10.6933 C.3     1  UNL1        0.0173
      4 C          60.2160   89.2940    9.4313 C.3     1  UNL1        0.0173
      5 C          61.5693   89.8269    9.7983 C.3     1  UNL1        0.0578
      6 C          62.8241   90.3554   10.4504 C.3     1  UNL1        0.0203
      7 C          62.7162   90.4805   11.9413 C.3     1  UNL1        0.0250
      8 C          61.4442   90.0942   12.6362 C.3     1  UNL1        0.0203
      9 C          63.8803   90.9918   12.7373 C.ar    1  UNL1       -0.0224
     10 C          63.9095   90.8083   14.2257 C.ar    1  UNL1       -0.0046
     11 C          65.0736   91.3196   15.0216 C.ar    1  UNL1       -0.0046
     12 C          66.2083   92.0145   14.3292 C.ar    1  UNL1       -0.0228
     13 C          66.1790   92.1980   12.8407 C.ar    1  UNL1       -0.0046
     14 C          65.0150   91.6867   12.0448 C.ar    1  UNL1       -0.0046
     15 C          67.3723   92.5258   15.1252 C.3     1  UNL1        0.0189
     16 C          68.5406   92.3771   14.1962 C.3     1  UNL1        0.0044
     17 C          66.4585   92.8065   16.2811 C.3     1  UNL1        0.0044
     18 C          68.2806   93.0898   16.1773 C.3     1  UNL1        0.0044
     19 C          62.7730   90.5168   12.0831 C.3     1  UNL1        0.0729
     20 C          63.8658   89.5782   12.5013 C.3     1  UNL1        0.0294
     21 C          63.5389   88.1591   12.8607 C.3     1  UNL1        0.0666
     22 S          64.0283   87.5815   14.1556 S.3     1  UNL1       -0.0756
     23 C          63.7501   83.7119   14.0393 C.ar    1  UNL1        0.2029
     24 N          64.7398   83.8980   15.1508 N.ar    1  UNL1       -0.1250
     25 N          64.9645   85.3702   15.3298 N.ar    1  UNL1       -0.1220
     26 C          64.1136   86.0940   14.3287 C.ar    1  UNL1        0.1933
     27 N          63.3630   85.0690   13.5311 N.ar    1  UNL1       -0.2860
     28 C          62.3697   84.9871   12.4101 C.3     1  UNL1        0.1341
     29 C          64.2777   82.4772   11.0649 C.3     1  UNL1        0.0556
     30 C          63.4798   81.8315   12.1588 C.ar    1  UNL1        0.1001
     31 N          62.7844   80.5050   12.0775 N.ar    1  UNL1       -0.2085
     32 C          62.1121   80.2526   13.3944 C.ar    1  UNL1        0.2849
     33 O          62.3920   81.4232   14.2895 O.2     1  UNL1       -0.4283
     34 C          63.2373   82.3991   13.5259 C.ar    1  UNL1        0.1964
@<TRIPOS>BOND
     1    29    30    1
     2    30    31   ar
     3    31    32   ar
     4    32    33   ar
     5    33    34   ar
     6    34    23    1
     7    23    24   ar
     8    24    25   ar
     9    25    26   ar
    10    26    22    1
    11    22    21    1
    12    21    20    1
    13    20    19    1
    14    19     1    1
    15     1     2    1
    16     2     3    1
    17     3     4    1
    18     5     4    1
    19     5     6    1
    20     6     7    1
    21     7     9    1
    22     9    10   ar
    23    10    11   ar
    24    11    12   ar
    25    12    15    1
    26    15    16    1
    27    15    17    1
    28    15    18    1
    29    12    13   ar
    30    13    14   ar
    31     7     8    1
    32    26    27   ar
    33    27    28    1
    34    34    30   ar
    35    27    23   ar
    36     5     1    1
    37    14     9   ar
    38     8     2    1
@<TRIPOS>MOLECULE
*****
 34 38 0 0 0
SMALL
GASTEIGER

@<TRIPOS>ATOM
      1 N          63.8898   88.8841   15.4415 N.3     1  UNL1       -0.2752
      2 C          64.0087   87.3994   15.2639 C.3     1  UNL1        0.0578
      3 C          63.3272   86.7377   16.4248 C.3     1  UNL1        0.0173
      4 C          62.7871   87.8134   17.3198 C.3     1  UNL1        0.0173
      5 C          63.1348   89.1400   16.7121 C.3     1  UNL1        0.0578
      6 C          63.6143   90.3079   15.8844 C.3     1  UNL1        0.0203
      7 C          64.3526   89.8990   14.6443 C.3     1  UNL1        0.0250
      8 C          64.5498   88.4447   14.3341 C.3     1  UNL1        0.0203
      9 C          64.8937   90.9443   13.7145 C.ar    1  UNL1       -0.0224
     10 C          65.9783   91.8712   14.1778 C.ar    1  UNL1       -0.0046
     11 C          66.5194   92.9165   13.2480 C.ar    1  UNL1       -0.0046
     12 C          65.9759   93.0349   11.8550 C.ar    1  UNL1       -0.0228
     13 C          64.8914   92.1081   11.3917 C.ar    1  UNL1       -0.0046
     14 C          64.3503   91.0628   12.3214 C.ar    1  UNL1       -0.0046
     15 C          66.5171   94.0803   10.9252 C.3     1  UNL1        0.0189
     16 C          66.0828   95.3760   11.5436 C.3     1  UNL1        0.0044
     17 C          67.0996   93.0056   10.0559 C.3     1  UNL1        0.0044
     18 C          67.1831   94.8344    9.8127 C.3     1  UNL1        0.0044
     19 C          64.4309   89.9294   14.5116 C.3     1  UNL1        0.0729
     20 C          63.6441   90.3362   13.3011 C.3     1  UNL1        0.0294
     21 C          62.1680   90.0762   13.2439 C.3     1  UNL1        0.0666
     22 S          61.5091   89.7791   11.9295 S.3     1  UNL1       -0.0756
     23 C          61.7653   86.6758    9.6125 C.ar    1  UNL1        0.2029
     24 N          62.3115   86.1249   10.8962 N.ar    1  UNL1       -0.1250
     25 N          62.2820   87.2203   11.9205 N.ar    1  UNL1       -0.1220
     26 C          61.7176   88.4483   11.2697 C.ar    1  UNL1        0.1933
     27 N          61.3982   88.1117    9.8433 N.ar    1  UNL1       -0.2860
     28 C          60.8388   88.7542    8.6086 C.3     1  UNL1        0.1341
     29 C          59.0187   86.3844    7.8744 C.3     1  UNL1        0.0556
     30 C          60.3505   85.7890    7.5252 C.ar    1  UNL1        0.1001
     31 N          60.6536   84.9552    6.3157 N.ar    1  UNL1       -0.2085
     32 C          62.1034   84.5738    6.3671 C.ar    1  UNL1        0.2849
     33 O          62.6963   85.1719    7.6083 O.2     1  UNL1       -0.4283
     34 C          61.6130   85.9230    8.3241 C.ar    1  UNL1        0.1964
@<TRIPOS>BOND
     1    29    30    1
     2    30    31   ar
     3    31    32   ar
     4    32    33   ar
     5    33    34   ar
     6    34    23    1
     7    23    24   ar
     8    24    25   ar
     9    25    26   ar
    10    26    22    1
    11    22    21    1
    12    21    20    1
    13    20    19    1
    14    19     1    1
    15     1     2    1
    16     2     3    1
    17     3     4    1
    18     5     4    1
    19     5     6    1
    20     6     7    1
    21     7     9    1
    22     9    10   ar
    23    10    11   ar
    24    11    12   ar
    25    12    15    1
    26    15    16    1
    27    15    17    1
    28    15    18    1
    29    12    13   ar
    30    13    14   ar
    31     7     8    1
    32    26    27   ar
    33    27    28    1
    34    34    30   ar
    35    27    23   ar
    36     5     1    1
    37    14     9   ar
    38     8     2    1
@<TRIPOS>MOLECULE
*****
 34 38 0 0 0
SMALL
GASTEIGER

@<TRIPOS>ATOM
      1 N          61.4309   88.6000    9.7800 N.3     1  UNL1       -0.2752
      2 C          61.7904   87.2676    9.1923 C.3     1  UNL1        0.0578
      3 C          60.5412   86.6567    8.6300 C.3     1  UNL1        0.0173
      4 C          59.4096   87.6116    8.8701 C.3     1  UNL1        0.0173
      5 C          59.9594   88.8127    9.5808 C.3     1  UNL1        0.0578
      6 C          60.7763   89.8741   10.2775 C.3     1  UNL1        0.0203
      7 C          62.2292   89.5234   10.4042 C.3     1  UNL1        0.0250
      8 C          62.7362   88.2201    9.8616 C.3     1  UNL1        0.0203
      9 C          63.1751   90.4760   11.0735 C.ar    1  UNL1       -0.0224
     10 C          63.2520   90.5287   12.5707 C.ar    1  UNL1       -0.0046
     11 C          64.1978   91.4812   13.2399 C.ar    1  UNL1       -0.0046
     12 C          65.0667   92.3811   12.4121 C.ar    1  UNL1       -0.0228
     13 C          64.9897   92.3285   10.9150 C.ar    1  UNL1       -0.0046
     14 C          64.0439   91.3759   10.2458 C.ar    1  UNL1       -0.0046
     15 C          66.0125   93.3337   13.0815 C.3     1  UNL1        0.0189
     16 C          66.2943   94.3649   12.0293 C.3     1  UNL1        0.0044
     17 C          65.9580   92.5085   14.3329 C.3     1  UNL1        0.0044
     18 C          66.9170   94.0583   14.0339 C.3     1  UNL1        0.0044
     19 C          62.3767   89.5526   10.4493 C.3     1  UNL1        0.0729
     20 C          62.7617   89.3434   11.8839 C.3     1  UNL1        0.0294
     21 C          62.7221   87.9667   12.4779 C.3     1  UNL1        0.0666
     22 S          63.8286   87.5070   13.3803 S.3     1  UNL1       -0.0756
     23 C          63.5675   83.6684   13.8921 C.ar    1  UNL1        0.2029
     24 N          64.4533   84.0541   15.0394 N.ar    1  UNL1       -0.1250
     25 N          64.6590   85.5390   14.9873 N.ar    1  UNL1       -0.1220
     26 C          63.9002   86.0710   13.8078 C.ar    1  UNL1        0.1933
     27 N          63.2256   84.9148   13.1309 N.ar    1  UNL1       -0.2860
     28 C          62.3368   84.6302   11.9566 C.3     1  UNL1        0.1341
     29 C          64.1518   82.0586   11.1142 C.3     1  UNL1        0.0556
     30 C          63.3732   81.5400   12.2868 C.ar    1  UNL1        0.1001
     31 N          62.7266   80.1903   12.3883 N.ar    1  UNL1       -0.2085
     32 C          62.0583   80.0961   13.7279 C.ar    1  UNL1        0.2849
     33 O          62.2920   81.3875   14.4543 O.2     1  UNL1       -0.4283
     34 C          63.1047   82.2799   13.5636 C.ar    1  UNL1        0.1964
@<TRIPOS>BOND
     1    29    30    1
     2    30    31   ar
     3    31    32   ar
     4    32    33   ar
     5    33    34   ar
     6    34    23    1
     7    23    24   ar
     8    24    25   ar
     9    25    26   ar
    10    26    22    1
    11    22    21    1
    12    21    20    1
    13    20    19    1
    14    19     1    1
    15     1     2    1
    16     2     3    1
    17     3     4    1
    18     5     4    1
    19     5     6    1
    20     6     7    1
    21     7     9    1
    22     9    10   ar
    23    10    11   ar
    24    11    12   ar
    25    12    15    1
    26    15    16    1
    27    15    17    1
    28    15    18    1
    29    12    13   ar
    30    13    14   ar
    31     7     8    1
    32    26    27   ar
    33    27    28    1
    34    34    30   ar
    35    27    23   ar
    36     5     1    1
    37    14     9   ar
    38     8     2    1
@<TRIPOS>MOLECULE
*****
 34 38 0 0 0
SMALL
GASTEIGER

@<TRIPOS>ATOM
      1 N          65.5865   92.3198   13.5704 N.3     1  UNL1       -0.2752
      2 C          65.5722   92.6847   12.1155 C.3     1  UNL1        0.0578
      3 C          66.1975   94.0404   11.9714 C.3     1  UNL1        0.0173
      4 C          66.5983   94.5135   13.3372 C.3     1  UNL1        0.0173
      5 C          66.2207   93.4501   14.3255 C.3     1  UNL1        0.0578
      6 C          65.7392   92.2322   15.0764 C.3     1  UNL1        0.0203
      7 C          65.1284   91.1866   14.1912 C.3     1  UNL1        0.0250
      8 C          65.0449   91.4128   12.7107 C.3     1  UNL1        0.0203
      9 C          64.6011   89.9146   14.7865 C.ar    1  UNL1       -0.0224
     10 C          63.7415   89.9615   16.0149 C.ar    1  UNL1       -0.0046
     11 C          63.2142   88.6896   16.6101 C.ar    1  UNL1       -0.0046
     12 C          63.5465   87.3710   15.9771 C.ar    1  UNL1       -0.0228
     13 C          64.4061   87.3242   14.7487 C.ar    1  UNL1       -0.0046
     14 C          64.9334   88.5960   14.1535 C.ar    1  UNL1       -0.0046
     15 C          63.0192   86.0992   16.5724 C.3     1  UNL1        0.0189
     16 C          62.4943   86.5167   17.9141 C.3     1  UNL1        0.0044
     17 C          63.4287   85.3517   15.3381 C.3     1  UNL1        0.0044
     18 C          62.6067   84.6842   16.8513 C.3     1  UNL1        0.0044
     19 C          65.0592   91.0479   14.1656 C.3     1  UNL1        0.0729
     20 C          63.5830   90.7823   14.1805 C.3     1  UNL1        0.0294
     21 C          62.8117   90.7617   12.8942 C.3     1  UNL1        0.0666
     22 S          61.6770   89.7971   12.7155 S.3     1  UNL1       -0.0756
     23 C          61.1235   87.8659    9.3945 C.ar    1  UNL1        0.2029
     24 N          60.4613   89.1750    9.0823 N.ar    1  UNL1       -0.1250
     25 N          60.5880   90.0578   10.2883 N.ar    1  UNL1       -0.1220
     26 C          61.3285   89.2943   11.3459 C.ar    1  UNL1        0.1933
     27 N          61.6595   87.9395   10.7934 N.ar    1  UNL1       -0.2860
     28 C          62.3445   86.6686   11.2004 C.3     1  UNL1        0.1341
     29 C          58.7141   86.6325    7.5716 C.3     1  UNL1        0.0556
     30 C          60.1235   86.1227    7.6321 C.ar    1  UNL1        0.1001
     31 N          60.6727   84.9563    6.8653 N.ar    1  UNL1       -0.2085
     32 C          62.1197   84.8024    7.2293 C.ar    1  UNL1        0.2849
     33 O          62.4647   85.8736    8.2210 O.2     1  UNL1       -0.4283
     34 C          61.2309   86.6896    8.4700 C.ar    1  UNL1        0.1964
@<TRIPOS>BOND
     1    29    30    1
     2    30    31   ar
     3    31    32   ar
     4    32    33   ar
     5    33    34   ar
     6    34    23    1
     7    23    24   ar
     8    24    25   ar
     9    25    26   ar
    10    26    22    1
    11    22    21    1
    12    21    20    1
    13    20    19    1
    14    19     1    1
    15     1     2    1
    16     2     3    1
    17     3     4    1
    18     5     4    1
    19     5     6    1
    20     6     7    1
    21     7     9    1
    22     9    10   ar
    23    10    11   ar
    24    11    12   ar
    25    12    15    1
    26    15    16    1
    27    15    17    1
    28    15    18    1
    29    12    13   ar
    30    13    14   ar
    31     7     8    1
    32    26    27   ar
    33    27    28    1
    34    34    30   ar
    35    27    23   ar
    36     5     1    1
    37    14     9   ar
    38     8     2    1
@<TRIPOS>MOLECULE
*****
 34 38 0 0 0
SMALL
GASTEIGER

@<TRIPOS>ATOM
      1 N          56.3313   95.0429   -1.3996 N.3     1  UNL1       -0.2752
      2 C          55.2348   94.1579   -1.9138 C.3     1  UNL1        0.0578
      3 C          54.1232   95.0360   -2.4071 C.3     1  UNL1        0.0173
      4 C          54.5327   96.4637   -2.1977 C.3     1  UNL1        0.0173
      5 C          55.8974   96.4680   -1.5750 C.3     1  UNL1        0.0578
      6 C          57.2459   96.1714   -0.9646 C.3     1  UNL1        0.0203
      7 C          57.5422   94.7052   -0.8526 C.3     1  UNL1        0.0250
      8 C          56.5366   93.6984   -1.3272 C.3     1  UNL1        0.0203
      9 C          58.8441   94.2458   -0.2659 C.ar    1  UNL1       -0.0224
     10 C          59.7985   95.2456    0.3166 C.ar    1  UNL1       -0.0046
     11 C          61.1003   94.7862    0.9032 C.ar    1  UNL1       -0.0046
     12 C          61.4477   93.3270    0.9073 C.ar    1  UNL1       -0.0228
     13 C          60.4933   92.3272    0.3247 C.ar    1  UNL1       -0.0046
     14 C          59.1915   92.7866   -0.2619 C.ar    1  UNL1       -0.0046
     15 C          62.7496   92.8677    1.4939 C.3     1  UNL1        0.0189
     16 C          63.7819   93.3860    0.5370 C.3     1  UNL1        0.0044
     17 C          62.0104   92.2190    2.6265 C.3     1  UNL1        0.0044
     18 C          63.8339   92.2649    2.3373 C.3     1  UNL1        0.0044
     19 C          57.6331   94.5834   -0.8130 C.3     1  UNL1        0.0729
     20 C          58.7574   94.1685   -1.7152 C.3     1  UNL1        0.0294
     21 C          58.8233   94.6902   -3.1199 C.3     1  UNL1        0.0666
     22 S          60.0714   95.3601   -3.6135 S.3     1  UNL1       -0.0756
     23 C          63.2644   93.4444   -4.7088 C.ar    1  UNL1        0.2029
     24 N          63.3239   93.2791   -3.2192 N.ar    1  UNL1       -0.1250
     25 N          62.1350   93.9765   -2.6275 N.ar    1  UNL1       -0.1220
     26 C          61.3408   94.5730   -3.7515 C.ar    1  UNL1        0.1933
     27 N          62.0388   94.2441   -5.0379 N.ar    1  UNL1       -0.2860
     28 C          61.8908   94.4639   -6.5143 C.3     1  UNL1        0.1341
     29 C          65.7177   95.1117   -6.0694 C.3     1  UNL1        0.0556
     30 C          65.3840   93.6712   -6.3215 C.ar    1  UNL1        0.1001
     31 N          66.1195   92.7441   -7.2433 N.ar    1  UNL1       -0.2085
     32 C          65.4463   91.4048   -7.1877 C.ar    1  UNL1        0.2849
     33 O          64.2949   91.5042   -6.2315 O.2     1  UNL1       -0.4283
     34 C          64.2563   92.9048   -5.6962 C.ar    1  UNL1        0.1964
@<TRIPOS>BOND
     1    29    30    1
     2    30    31   ar
     3    31    32   ar
     4    32    33   ar
     5    33    34   ar
     6    34    23    1
     7    23    24   ar
     8    24    25   ar
     9    25    26   ar
    10    26    22    1
    11    22    21    1
    12    21    20    1
    13    20    19    1
    14    19     1    1
    15     1     2    1
    16     2     3    1
    17     3     4    1
    18     5     4    1
    19     5     6    1
    20     6     7    1
    21     7     9    1
    22     9    10   ar
    23    10    11   ar
    24    11    12   ar
    25    12    15    1
    26    15    16    1
    27    15    17    1
    28    15    18    1
    29    12    13   ar
    30    13    14   ar
    31     7     8    1
    32    26    27   ar
    33    27    28    1
    34    34    30   ar
    35    27    23   ar
    36     5     1    1
    37    14     9   ar
    38     8     2    1
