@<TRIPOS>MOLECULE
*****
 46 50 0 0 0
SMALL
GASTEIGER

@<TRIPOS>ATOM
      1 C          61.0624   88.7157    9.4115 C.3     1  UNL1        0.0964
      2 C          60.2730   89.9005    8.9391 C.3     1  UNL1        0.0780
      3 N          59.3397   89.7632    7.7729 N.3     1  UNL1       -0.2970
      4 C          59.1958   88.4411    7.0791 C.3     1  UNL1        0.0689
      5 C          59.9852   87.2563    7.5515 C.3     1  UNL1        0.0220
      6 C          60.9185   87.3936    8.7177 C.3     1  UNL1        0.0337
      7 H          59.6481   90.4333    7.0685 H       1  UNL1        0.1233
      8 C          61.7079   86.2088    9.1901 C.ar    1  UNL1       -0.0217
      9 C          62.6979   85.5534    8.2734 C.ar    1  UNL1       -0.0012
     10 C          63.4873   84.3686    8.7458 C.ar    1  UNL1        0.0366
     11 C          63.2867   83.8393   10.1349 C.ar    1  UNL1        0.1387
     12 C          62.2967   84.4947   11.0515 C.ar    1  UNL1        0.0366
     13 C          61.5073   85.6795   10.5791 C.ar    1  UNL1       -0.0012
     14 O          64.0761   82.6545   10.6073 O.3     1  UNL1       -0.4714
     15 C          63.4499   81.6590   11.5383 C.3     1  UNL1        0.2525
     16 C          63.7769   81.6919   13.0018 C.3     1  UNL1        0.2525
     17 O          64.6313   82.7939   13.5548 O.3     1  UNL1       -0.4697
     18 C          64.0574   83.7621   14.5464 C.ar    1  UNL1        0.1596
     19 C          62.6764   83.5477   15.0911 C.ar    1  UNL1        0.0921
     20 CL         61.8692   82.3651   14.6441 Cl      1  UNL1       -0.0791
     21 C          62.1025   84.5160   16.0827 C.ar    1  UNL1        0.0103
     22 C          62.9098   85.6986   16.5296 C.ar    1  UNL1       -0.0200
     23 C          62.3359   86.6668   17.5212 C.3     1  UNL1        0.0311
     24 C          64.2909   85.9130   15.9850 C.ar    1  UNL1        0.0103
     25 C          64.8647   84.9448   14.9934 C.ar    1  UNL1        0.0921
     26 CL         66.2458   85.1592   14.4487 Cl      1  UNL1       -0.0791
     27 N          61.4933   89.4026   11.8798 N.am    1  UNL1       -0.2770
     28 C          61.9958   88.8530   10.5777 C.2     1  UNL1        0.2270
     29 O          63.4316   88.4408   10.4418 O.2     1  UNL1       -0.2748
     30 C          60.0575   89.8148   12.0157 C.3     1  UNL1        0.0758
     31 C          58.6574   89.5172   12.4642 C.3     1  UNL1        0.0215
     32 C          58.9707   90.8265   11.8026 C.3     1  UNL1        0.0215
     33 C          62.4266   89.5399   13.0460 C.3     1  UNL1        0.1209
     34 C          64.9606   92.2633   11.6631 C.ar    1  UNL1       -0.0210
     35 C          65.9242   92.3614   12.8085 C.ar    1  UNL1       -0.0034
     36 C          65.7219   91.5191   14.0331 C.ar    1  UNL1        0.0108
     37 C          64.5560   90.5786   14.1122 C.ar    1  UNL1        0.0553
     38 CL         64.3537   89.7362   15.3367 Cl      1  UNL1       -0.0825
     39 C          63.5925   90.4804   12.9669 C.ar    1  UNL1        0.0079
     40 C          63.7948   91.3228   11.7423 C.ar    1  UNL1       -0.0060
     41 C          65.1629   93.1056   10.4386 C.3     1  UNL1        0.0434
     42 C          65.9066   94.4046   10.5363 C.3     1  UNL1        0.0733
     43 N          67.3667   94.4602   10.1967 N.3     1  UNL1       -0.2972
     44 H          67.5903   95.4392   10.0179 H       1  UNL1        0.1233
     45 C          68.5736   92.3571    9.2638 C.3     1  UNL1        0.0185
     46 C          67.8965   93.6756    9.0332 C.3     1  UNL1        0.0686
@<TRIPOS>BOND
     1    45    46    1
     2    46    43    1
     3    43    42    1
     4    42    41    1
     5    41    34    1
     6    34    35   ar
     7    35    36   ar
     8    36    37   ar
     9    37    38    1
    10    37    39   ar
    11    39    33    1
    12    33    27    1
    13    27    28   am
    14    28    29    2
    15     1    28    1
    16     1     2    1
    17     2     3    1
    18     3     4    1
    19     4     5    1
    20     5     6    1
    21     6     8    1
    22     8     9   ar
    23     9    10   ar
    24    10    11   ar
    25    11    14    1
    26    14    15    1
    27    15    16    1
    28    16    17    1
    29    17    18    1
    30    18    19   ar
    31    19    20    1
    32    19    21   ar
    33    21    22   ar
    34    22    23    1
    35    22    24   ar
    36    24    25   ar
    37    25    26    1
    38    11    12   ar
    39    12    13   ar
    40    27    30    1
    41    30    31    1
    42    31    32    1
    43    39    40   ar
    44    40    34   ar
    45     6     1    1
    46    13     8   ar
    47    32    30    1
    48    25    18   ar
    49    43    44    1
    50     3     7    1
@<TRIPOS>MOLECULE
*****
 46 50 0 0 0
SMALL
GASTEIGER

@<TRIPOS>ATOM
      1 C          60.7068   86.8226    9.3911 C.3     1  UNL1        0.0964
      2 C          59.8485   86.0129    8.4650 C.3     1  UNL1        0.0780
      3 N          58.8667   86.6978    7.5612 N.3     1  UNL1       -0.2970
      4 C          58.7432   88.1925    7.5835 C.3     1  UNL1        0.0689
      5 C          59.6016   89.0023    8.5096 C.3     1  UNL1        0.0220
      6 C          60.5833   88.3173    9.4134 C.3     1  UNL1        0.0337
      7 H          57.9458   86.3229    7.7888 H       1  UNL1        0.1233
      8 C          61.4416   89.1271   10.3394 C.ar    1  UNL1       -0.0217
      9 C          62.7032   89.7600    9.8316 C.ar    1  UNL1       -0.0012
     10 C          63.5615   90.5698   10.7576 C.ar    1  UNL1        0.0366
     11 C          63.1583   90.7466   12.1915 C.ar    1  UNL1        0.1387
     12 C          61.8968   90.1137   12.6994 C.ar    1  UNL1        0.0366
     13 C          61.0385   89.3039   11.7733 C.ar    1  UNL1       -0.0012
     14 O          64.0166   91.5564   13.1176 O.3     1  UNL1       -0.4714
     15 C          65.4073   91.9407   12.7074 C.3     1  UNL1        0.2525
     16 C          65.8186   93.3832   12.7109 C.3     1  UNL1        0.2525
     17 O          67.0591   93.8111   11.9840 O.3     1  UNL1       -0.4697
     18 C          66.9488   94.5723   10.6962 C.ar    1  UNL1        0.1596
     19 C          66.4155   95.9743   10.6970 C.ar    1  UNL1        0.0921
     20 CL         65.9925   96.6150   11.9855 Cl      1  UNL1       -0.0791
     21 C          66.3053   96.7355    9.4092 C.ar    1  UNL1        0.0103
     22 C          66.7284   96.0947    8.1207 C.ar    1  UNL1       -0.0200
     23 C          66.6181   96.8559    6.8329 C.3     1  UNL1        0.0311
     24 C          67.2617   94.6927    8.1199 C.ar    1  UNL1        0.0103
     25 C          67.3720   93.9315    9.4076 C.ar    1  UNL1        0.0921
     26 CL         67.9053   92.5295    9.4069 Cl      1  UNL1       -0.0791
     27 N          62.7128   85.2047    9.7200 N.am    1  UNL1       -0.2770
     28 C          61.6886   86.1376   10.2949 C.2     1  UNL1        0.2270
     29 O          61.6461   86.3855   11.7737 O.2     1  UNL1       -0.2748
     30 C          62.7553   84.9567    8.2413 C.3     1  UNL1        0.0758
     31 C          62.0487   84.8344    6.9238 C.3     1  UNL1        0.0215
     32 C          63.5354   84.6496    6.9975 C.3     1  UNL1        0.0215
     33 C          63.6946   84.5196   10.6239 C.3     1  UNL1        0.1209
     34 C          62.4823   83.1743   14.1552 C.ar    1  UNL1       -0.0210
     35 C          62.2285   81.7306   13.8367 C.ar    1  UNL1       -0.0034
     36 C          62.4634   81.2167   12.4472 C.ar    1  UNL1        0.0108
     37 C          62.9521   82.1463   11.3763 C.ar    1  UNL1        0.0553
     38 CL         63.1870   81.6324    9.9868 Cl      1  UNL1       -0.0825
     39 C          63.2059   83.5900   11.6948 C.ar    1  UNL1        0.0079
     40 C          62.9710   84.1040   13.0843 C.ar    1  UNL1       -0.0060
     41 C          62.2475   83.6883   15.5447 C.3     1  UNL1        0.0434
     42 C          62.4360   85.1453   15.8473 C.3     1  UNL1        0.0733
     43 N          63.8009   85.6719   16.1789 N.3     1  UNL1       -0.2972
     44 H          63.6759   86.3781   16.9042 H       1  UNL1        0.1233
     45 C          64.3339   87.6804   14.6195 C.3     1  UNL1        0.0185
     46 C          64.6445   86.2964   15.1073 C.3     1  UNL1        0.0686
@<TRIPOS>BOND
     1    45    46    1
     2    46    43    1
     3    43    42    1
     4    42    41    1
     5    41    34    1
     6    34    35   ar
     7    35    36   ar
     8    36    37   ar
     9    37    38    1
    10    37    39   ar
    11    39    33    1
    12    33    27    1
    13    27    28   am
    14    28    29    2
    15     1    28    1
    16     1     2    1
    17     2     3    1
    18     3     4    1
    19     4     5    1
    20     5     6    1
    21     6     8    1
    22     8     9   ar
    23     9    10   ar
    24    10    11   ar
    25    11    14    1
    26    14    15    1
    27    15    16    1
    28    16    17    1
    29    17    18    1
    30    18    19   ar
    31    19    20    1
    32    19    21   ar
    33    21    22   ar
    34    22    23    1
    35    22    24   ar
    36    24    25   ar
    37    25    26    1
    38    11    12   ar
    39    12    13   ar
    40    27    30    1
    41    30    31    1
    42    31    32    1
    43    39    40   ar
    44    40    34   ar
    45     6     1    1
    46    13     8   ar
    47    32    30    1
    48    25    18   ar
    49    43    44    1
    50     3     7    1
@<TRIPOS>MOLECULE
*****
 46 50 0 0 0
SMALL
GASTEIGER

@<TRIPOS>ATOM
      1 C          60.0262   88.0253    9.6510 C.3     1  UNL1        0.0964
      2 C          59.0754   87.3177    8.7317 C.3     1  UNL1        0.0780
      3 N          58.7771   87.8886    7.3771 N.3     1  UNL1       -0.2970
      4 C          59.4297   89.1671    6.9418 C.3     1  UNL1        0.0689
      5 C          60.3806   89.8746    7.8611 C.3     1  UNL1        0.0220
      6 C          60.6789   89.3037    9.2157 C.3     1  UNL1        0.0337
      7 H          57.7698   88.0442    7.3384 H       1  UNL1        0.1233
      8 C          61.6298   90.0113   10.1350 C.ar    1  UNL1       -0.0217
      9 C          61.4957   89.8515   11.6204 C.ar    1  UNL1       -0.0012
     10 C          62.4466   90.5591   12.5397 C.ar    1  UNL1        0.0366
     11 C          63.5315   91.4264   11.9737 C.ar    1  UNL1        0.1387
     12 C          63.6656   91.5863   10.4883 C.ar    1  UNL1        0.0366
     13 C          62.7147   90.8787    9.5690 C.ar    1  UNL1       -0.0012
     14 O          64.4824   92.1340   12.8930 O.3     1  UNL1       -0.4714
     15 C          65.8572   91.5793   13.1217 C.3     1  UNL1        0.2525
     16 C          67.0610   92.4508   12.9180 C.3     1  UNL1        0.2525
     17 O          67.7399   92.4913   11.5810 O.3     1  UNL1       -0.4697
     18 C          67.4106   93.5821   10.6054 C.ar    1  UNL1        0.1596
     19 C          67.8328   93.4584    9.1714 C.ar    1  UNL1        0.0921
     20 CL         68.5842   92.2439    8.7129 Cl      1  UNL1       -0.0791
     21 C          67.5035   94.5493    8.1959 C.ar    1  UNL1        0.0103
     22 C          66.7521   95.7638    8.6543 C.ar    1  UNL1       -0.0200
     23 C          66.4228   96.8546    7.6788 C.3     1  UNL1        0.0311
     24 C          66.3299   95.8875   10.0884 C.ar    1  UNL1        0.0103
     25 C          66.6592   94.7967   11.0640 C.ar    1  UNL1        0.0921
     26 CL         66.2370   94.9204   12.4980 Cl      1  UNL1       -0.0791
     27 N          61.3928   86.4130   11.1621 N.am    1  UNL1       -0.2770
     28 C          60.3245   87.4543   11.0057 C.2     1  UNL1        0.2270
     29 O          59.5544   87.9246   12.2039 O.2     1  UNL1       -0.2748
     30 C          62.1629   85.9427    9.9639 C.3     1  UNL1        0.0758
     31 C          63.0085   84.9038    9.2890 C.3     1  UNL1        0.0215
     32 C          62.6511   86.1671    8.5634 C.3     1  UNL1        0.0215
     33 C          61.6911   85.8421   12.5168 C.3     1  UNL1        0.1209
     34 C          63.4019   82.2770   12.1796 C.ar    1  UNL1       -0.0210
     35 C          64.6740   82.4998   12.9427 C.ar    1  UNL1       -0.0034
     36 C          64.9518   83.8367   13.5637 C.ar    1  UNL1        0.0108
     37 C          63.9574   84.9507   13.4218 C.ar    1  UNL1        0.0553
     38 CL         64.2352   86.2875   14.0428 Cl      1  UNL1       -0.0825
     39 C          62.6854   84.7280   12.6588 C.ar    1  UNL1        0.0079
     40 C          62.4076   83.3911   12.0377 C.ar    1  UNL1       -0.0060
     41 C          63.1242   80.9402   11.5586 C.3     1  UNL1        0.0434
     42 C          62.4917   79.8514   12.3737 C.3     1  UNL1        0.0733
     43 N          62.1437   80.0971   13.8120 N.3     1  UNL1       -0.2972
     44 H          62.0490   79.1820   14.2525 H       1  UNL1        0.1233
     45 C          59.5773   80.1906   14.2054 C.3     1  UNL1        0.0185
     46 C          60.9108   80.8761   14.1628 C.3     1  UNL1        0.0686
@<TRIPOS>BOND
     1    45    46    1
     2    46    43    1
     3    43    42    1
     4    42    41    1
     5    41    34    1
     6    34    35   ar
     7    35    36   ar
     8    36    37   ar
     9    37    38    1
    10    37    39   ar
    11    39    33    1
    12    33    27    1
    13    27    28   am
    14    28    29    2
    15     1    28    1
    16     1     2    1
    17     2     3    1
    18     3     4    1
    19     4     5    1
    20     5     6    1
    21     6     8    1
    22     8     9   ar
    23     9    10   ar
    24    10    11   ar
    25    11    14    1
    26    14    15    1
    27    15    16    1
    28    16    17    1
    29    17    18    1
    30    18    19   ar
    31    19    20    1
    32    19    21   ar
    33    21    22   ar
    34    22    23    1
    35    22    24   ar
    36    24    25   ar
    37    25    26    1
    38    11    12   ar
    39    12    13   ar
    40    27    30    1
    41    30    31    1
    42    31    32    1
    43    39    40   ar
    44    40    34   ar
    45     6     1    1
    46    13     8   ar
    47    32    30    1
    48    25    18   ar
    49    43    44    1
    50     3     7    1
@<TRIPOS>MOLECULE
*****
 46 50 0 0 0
SMALL
GASTEIGER

@<TRIPOS>ATOM
      1 C          60.1653   87.7993    9.3967 C.3     1  UNL1        0.0964
      2 C          59.3273   87.1537    8.3333 C.3     1  UNL1        0.0780
      3 N          59.0735   87.8703    7.0402 N.3     1  UNL1       -0.2970
      4 C          59.6577   89.2326    6.8106 C.3     1  UNL1        0.0689
      5 C          60.4958   89.8783    7.8740 C.3     1  UNL1        0.0220
      6 C          60.7496   89.1616    9.1670 C.3     1  UNL1        0.0337
      7 H          58.0619   87.9646    6.9495 H       1  UNL1        0.1233
      8 C          61.5876   89.8073   10.2304 C.ar    1  UNL1       -0.0217
      9 C          62.8438   90.5363    9.8557 C.ar    1  UNL1       -0.0012
     10 C          63.6819   91.1819   10.9191 C.ar    1  UNL1        0.0366
     11 C          63.2637   91.0987   12.3572 C.ar    1  UNL1        0.1387
     12 C          62.0075   90.3697   12.7319 C.ar    1  UNL1        0.0366
     13 C          61.1694   89.7240   11.6685 C.ar    1  UNL1       -0.0012
     14 O          64.1017   91.7443   13.4206 O.3     1  UNL1       -0.4714
     15 C          65.5515   92.0299   13.1626 C.3     1  UNL1        0.2525
     16 C          66.0069   93.4385   12.9205 C.3     1  UNL1        0.2525
     17 O          67.1556   93.7065   11.9937 O.3     1  UNL1       -0.4697
     18 C          66.9365   94.4937   10.7358 C.ar    1  UNL1        0.1596
     19 C          66.3319   95.8646   10.8048 C.ar    1  UNL1        0.0921
     20 CL         65.9464   96.4484   12.1316 Cl      1  UNL1       -0.0791
     21 C          66.1128   96.6518    9.5469 C.ar    1  UNL1        0.0103
     22 C          66.4984   96.0681    8.2201 C.ar    1  UNL1       -0.0200
     23 C          66.2793   96.8553    6.9622 C.3     1  UNL1        0.0311
     24 C          67.1030   94.6970    8.1511 C.ar    1  UNL1        0.0103
     25 C          67.3221   93.9098    9.4090 C.ar    1  UNL1        0.0921
     26 CL         67.9267   92.5388    9.3400 Cl      1  UNL1       -0.0791
     27 N          61.4234   85.9699   10.7460 N.am    1  UNL1       -0.2770
     28 C          60.4191   87.0827   10.6898 C.2     1  UNL1        0.2270
     29 O          59.6686   87.4788   11.9266 O.2     1  UNL1       -0.2748
     30 C          62.1740   85.5738    9.5091 C.3     1  UNL1        0.0758
     31 C          62.2413   85.4436    8.0163 C.3     1  UNL1        0.0215
     32 C          63.4065   85.0181    8.8597 C.3     1  UNL1        0.0215
     33 C          61.6772   85.2532   12.0391 C.3     1  UNL1        0.1209
     34 C          64.2765   87.3767   14.1568 C.ar    1  UNL1       -0.0210
     35 C          65.2685   86.3164   14.5335 C.ar    1  UNL1       -0.0034
     36 C          65.0634   84.9018   14.0787 C.ar    1  UNL1        0.0108
     37 C          63.8663   84.5474   13.2473 C.ar    1  UNL1        0.0553
     38 CL         63.6611   83.1329   12.7925 Cl      1  UNL1       -0.0825
     39 C          62.8743   85.6076   12.8705 C.ar    1  UNL1        0.0079
     40 C          63.0794   87.0223   13.3253 C.ar    1  UNL1       -0.0060
     41 C          64.4817   88.7913   14.6115 C.3     1  UNL1        0.0434
     42 C          63.7166   89.3190   15.7889 C.3     1  UNL1        0.0733
     43 N          62.6027   88.5093   16.3835 N.3     1  UNL1       -0.2972
     44 H          61.9161   89.1724   16.7431 H       1  UNL1        0.1233
     45 C          62.7239   86.0664   17.2597 C.3     1  UNL1        0.0185
     46 C          62.8891   87.5392   17.4912 C.3     1  UNL1        0.0686
@<TRIPOS>BOND
     1    45    46    1
     2    46    43    1
     3    43    42    1
     4    42    41    1
     5    41    34    1
     6    34    35   ar
     7    35    36   ar
     8    36    37   ar
     9    37    38    1
    10    37    39   ar
    11    39    33    1
    12    33    27    1
    13    27    28   am
    14    28    29    2
    15     1    28    1
    16     1     2    1
    17     2     3    1
    18     3     4    1
    19     4     5    1
    20     5     6    1
    21     6     8    1
    22     8     9   ar
    23     9    10   ar
    24    10    11   ar
    25    11    14    1
    26    14    15    1
    27    15    16    1
    28    16    17    1
    29    17    18    1
    30    18    19   ar
    31    19    20    1
    32    19    21   ar
    33    21    22   ar
    34    22    23    1
    35    22    24   ar
    36    24    25   ar
    37    25    26    1
    38    11    12   ar
    39    12    13   ar
    40    27    30    1
    41    30    31    1
    42    31    32    1
    43    39    40   ar
    44    40    34   ar
    45     6     1    1
    46    13     8   ar
    47    32    30    1
    48    25    18   ar
    49    43    44    1
    50     3     7    1
@<TRIPOS>MOLECULE
*****
 46 50 0 0 0
SMALL
GASTEIGER

@<TRIPOS>ATOM
      1 C          63.4515   86.9941   13.0083 C.3     1  UNL1        0.0964
      2 C          64.2585   86.4702   14.1590 C.3     1  UNL1        0.0780
      3 N          64.2772   84.9996   14.4540 N.3     1  UNL1       -0.2970
      4 C          63.4889   84.0530   13.5983 C.3     1  UNL1        0.0689
      5 C          62.6818   84.5769   12.4476 C.3     1  UNL1        0.0220
      6 C          62.6631   86.0474   12.1526 C.3     1  UNL1        0.0337
      7 H          63.9369   84.8865   15.4088 H       1  UNL1        0.1233
      8 C          61.8560   86.5713   11.0019 C.ar    1  UNL1       -0.0217
      9 C          62.2470   86.2301    9.5945 C.ar    1  UNL1       -0.0012
     10 C          61.4400   86.7540    8.4438 C.ar    1  UNL1        0.0366
     11 C          60.2418   87.6192    8.7004 C.ar    1  UNL1        0.1387
     12 C          59.8507   87.9604   10.1077 C.ar    1  UNL1        0.0366
     13 C          60.6578   87.4365   11.2585 C.ar    1  UNL1       -0.0012
     14 O          59.4347   88.1431    7.5497 O.3     1  UNL1       -0.4714
     15 C          59.5272   89.5902    7.1661 C.3     1  UNL1        0.2525
     16 C          59.7175   89.9744    5.7287 C.3     1  UNL1        0.2525
     17 O          60.9480   90.7226    5.3090 O.3     1  UNL1       -0.4697
     18 C          60.9263   91.5661    4.0688 C.ar    1  UNL1        0.1596
     19 C          59.6982   92.3526    3.7180 C.ar    1  UNL1        0.0921
     20 CL         58.4917   92.2955    4.6075 Cl      1  UNL1       -0.0791
     21 C          59.6765   93.1961    2.4779 C.ar    1  UNL1        0.0103
     22 C          60.8829   93.2532    1.5885 C.ar    1  UNL1       -0.0200
     23 C          60.8613   94.0967    0.3483 C.3     1  UNL1        0.0311
     24 C          62.1112   92.4667    1.9392 C.ar    1  UNL1        0.0103
     25 C          62.1329   91.6232    3.1794 C.ar    1  UNL1        0.0921
     26 CL         63.3611   90.8368    3.5301 Cl      1  UNL1       -0.0791
     27 N          63.3574   89.4544   13.8379 N.am    1  UNL1       -0.2770
     28 C          63.4328   88.4647   12.7133 C.2     1  UNL1        0.2270
     29 O          63.4895   88.9456   11.2936 O.2     1  UNL1       -0.2748
     30 C          63.3006   88.9734   15.2576 C.3     1  UNL1        0.0758
     31 C          63.0576   89.2455   16.7125 C.3     1  UNL1        0.0215
     32 C          63.4454   87.8684   16.2616 C.3     1  UNL1        0.0215
     33 C          63.3387   90.9250   13.5429 C.3     1  UNL1        0.1209
     34 C          66.2242   92.6362   11.4226 C.ar    1  UNL1       -0.0210
     35 C          67.1627   93.0618   12.5127 C.ar    1  UNL1       -0.0034
     36 C          66.8265   92.7751   13.9461 C.ar    1  UNL1        0.0108
     37 C          65.5518   92.0629   14.2895 C.ar    1  UNL1        0.0553
     38 CL         65.2156   91.7762   15.7229 Cl      1  UNL1       -0.0825
     39 C          64.6134   91.6373   13.1995 C.ar    1  UNL1        0.0079
     40 C          64.9496   91.9239   11.7660 C.ar    1  UNL1       -0.0060
     41 C          66.5604   92.9228    9.9891 C.3     1  UNL1        0.0434
     42 C          67.9780   93.2151    9.5952 C.3     1  UNL1        0.0733
     43 N          68.3975   94.6234    9.2939 N.3     1  UNL1       -0.2972
     44 H          69.1810   94.8357    9.9115 H       1  UNL1        0.1233
     45 C          66.9895   96.5332    8.2357 C.3     1  UNL1        0.0185
     46 C          67.4141   95.7465    9.4401 C.3     1  UNL1        0.0686
@<TRIPOS>BOND
     1    45    46    1
     2    46    43    1
     3    43    42    1
     4    42    41    1
     5    41    34    1
     6    34    35   ar
     7    35    36   ar
     8    36    37   ar
     9    37    38    1
    10    37    39   ar
    11    39    33    1
    12    33    27    1
    13    27    28   am
    14    28    29    2
    15     1    28    1
    16     1     2    1
    17     2     3    1
    18     3     4    1
    19     4     5    1
    20     5     6    1
    21     6     8    1
    22     8     9   ar
    23     9    10   ar
    24    10    11   ar
    25    11    14    1
    26    14    15    1
    27    15    16    1
    28    16    17    1
    29    17    18    1
    30    18    19   ar
    31    19    20    1
    32    19    21   ar
    33    21    22   ar
    34    22    23    1
    35    22    24   ar
    36    24    25   ar
    37    25    26    1
    38    11    12   ar
    39    12    13   ar
    40    27    30    1
    41    30    31    1
    42    31    32    1
    43    39    40   ar
    44    40    34   ar
    45     6     1    1
    46    13     8   ar
    47    32    30    1
    48    25    18   ar
    49    43    44    1
    50     3     7    1
@<TRIPOS>MOLECULE
*****
 46 50 0 0 0
SMALL
GASTEIGER

@<TRIPOS>ATOM
      1 C          62.6114   94.5857    0.6755 C.3     1  UNL1        0.0964
      2 C          63.6334   95.1506   -0.2659 C.3     1  UNL1        0.0780
      3 N          65.0169   94.5725   -0.3060 N.3     1  UNL1       -0.2970
      4 C          65.3784   93.4294    0.5954 C.3     1  UNL1        0.0689
      5 C          64.3564   92.8645    1.5369 C.3     1  UNL1        0.0220
      6 C          62.9729   93.4426    1.5770 C.3     1  UNL1        0.0337
      7 H          65.6604   95.3335   -0.0890 H       1  UNL1        0.1233
      8 C          61.9510   92.8776    2.5184 C.ar    1  UNL1       -0.0217
      9 C          62.3390   91.8018    3.4890 C.ar    1  UNL1       -0.0012
     10 C          61.3170   91.2369    4.4305 C.ar    1  UNL1        0.0366
     11 C          59.9070   91.7477    4.4014 C.ar    1  UNL1        0.1387
     12 C          59.5190   92.8235    3.4308 C.ar    1  UNL1        0.0366
     13 C          60.5410   93.3885    2.4894 C.ar    1  UNL1       -0.0012
     14 O          58.8850   91.1828    5.3429 O.3     1  UNL1       -0.4714
     15 C          59.0116   89.7686    5.8266 C.3     1  UNL1        0.2525
     16 C          59.7038   89.4794    7.1255 C.3     1  UNL1        0.2525
     17 O          59.1342   88.4612    8.0685 O.3     1  UNL1       -0.4697
     18 C          60.0326   87.7506    9.0369 C.ar    1  UNL1        0.1596
     19 C          60.5311   86.3710    8.7239 C.ar    1  UNL1        0.0921
     20 CL         60.1312   85.7020    7.4423 Cl      1  UNL1       -0.0791
     21 C          61.4294   85.6604    9.6924 C.ar    1  UNL1        0.0103
     22 C          61.8293   86.3294   10.9739 C.ar    1  UNL1       -0.0200
     23 C          62.7277   85.6188   11.9424 C.3     1  UNL1        0.0311
     24 C          61.3308   87.7091   11.2871 C.ar    1  UNL1        0.0103
     25 C          60.4324   88.4197   10.3186 C.ar    1  UNL1        0.0921
     26 CL         59.9339   89.7993   10.6317 Cl      1  UNL1       -0.0791
     27 N          60.2991   94.9675   -0.4458 N.am    1  UNL1       -0.2770
     28 C          61.2279   95.1639    0.7156 C.2     1  UNL1        0.2270
     29 O          60.7732   95.9384    1.9170 O.2     1  UNL1       -0.2748
     30 C          60.7538   94.1930   -1.6472 C.3     1  UNL1        0.0758
     31 C          60.6384   93.8770   -3.1089 C.3     1  UNL1        0.0215
     32 C          61.6566   93.1675   -2.2663 C.3     1  UNL1        0.0215
     33 C          58.9155   95.5457   -0.4058 C.3     1  UNL1        0.1209
     34 C          55.8238   94.9071   -2.8107 C.ar    1  UNL1       -0.0210
     35 C          55.5430   93.4599   -2.5330 C.ar    1  UNL1       -0.0034
     36 C          56.3863   92.7082   -1.5464 C.ar    1  UNL1        0.0108
     37 C          57.5105   93.4034   -0.8373 C.ar    1  UNL1        0.0553
     38 CL         58.3538   92.6516    0.1494 Cl      1  UNL1       -0.0825
     39 C          57.7913   94.8505   -1.1149 C.ar    1  UNL1        0.0079
     40 C          56.9480   95.6024   -2.1016 C.ar    1  UNL1       -0.0060
     41 C          54.9805   95.6589   -3.7973 C.3     1  UNL1        0.0434
     42 C          55.2479   95.5261   -5.2673 C.3     1  UNL1        0.0733
     43 N          55.2191   94.1737   -5.9156 N.3     1  UNL1       -0.2972
     44 H          54.8286   93.5269   -5.2304 H       1  UNL1        0.1233
     45 C          57.7233   93.5767   -5.5652 C.3     1  UNL1        0.0185
     46 C          56.4901   93.5560   -6.4188 C.3     1  UNL1        0.0686
@<TRIPOS>BOND
     1    45    46    1
     2    46    43    1
     3    43    42    1
     4    42    41    1
     5    41    34    1
     6    34    35   ar
     7    35    36   ar
     8    36    37   ar
     9    37    38    1
    10    37    39   ar
    11    39    33    1
    12    33    27    1
    13    27    28   am
    14    28    29    2
    15     1    28    1
    16     1     2    1
    17     2     3    1
    18     3     4    1
    19     4     5    1
    20     5     6    1
    21     6     8    1
    22     8     9   ar
    23     9    10   ar
    24    10    11   ar
    25    11    14    1
    26    14    15    1
    27    15    16    1
    28    16    17    1
    29    17    18    1
    30    18    19   ar
    31    19    20    1
    32    19    21   ar
    33    21    22   ar
    34    22    23    1
    35    22    24   ar
    36    24    25   ar
    37    25    26    1
    38    11    12   ar
    39    12    13   ar
    40    27    30    1
    41    30    31    1
    42    31    32    1
    43    39    40   ar
    44    40    34   ar
    45     6     1    1
    46    13     8   ar
    47    32    30    1
    48    25    18   ar
    49    43    44    1
    50     3     7    1
@<TRIPOS>MOLECULE
*****
 46 50 0 0 0
SMALL
GASTEIGER

@<TRIPOS>ATOM
      1 C          62.6885   84.7963   12.8507 C.3     1  UNL1        0.0964
      2 C          62.3469   83.3368   12.9057 C.3     1  UNL1        0.0780
      3 N          62.5225   82.5731   14.1847 N.3     1  UNL1       -0.2970
      4 C          63.0396   83.2690   15.4087 C.3     1  UNL1        0.0689
      5 C          63.3812   84.7286   15.3537 C.3     1  UNL1        0.0220
      6 C          63.2056   85.4922   14.0747 C.3     1  UNL1        0.0337
      7 H          63.1683   81.8093   13.9853 H       1  UNL1        0.1233
      8 C          63.5472   86.9518   14.0197 C.ar    1  UNL1       -0.0217
      9 C          63.4750   87.6903   12.7161 C.ar    1  UNL1       -0.0012
     10 C          63.8166   89.1499   12.6611 C.ar    1  UNL1        0.0366
     11 C          64.2303   89.8709   13.9096 C.ar    1  UNL1        0.1387
     12 C          64.3025   89.1324   15.2132 C.ar    1  UNL1        0.0366
     13 C          63.9609   87.6728   15.2682 C.ar    1  UNL1       -0.0012
     14 O          64.5719   91.3305   13.8546 O.3     1  UNL1       -0.4714
     15 C          65.4628   91.8517   12.7663 C.3     1  UNL1        0.2525
     16 C          65.7569   93.3199   12.6765 C.3     1  UNL1        0.2525
     17 O          67.0203   93.7930   12.0208 O.3     1  UNL1       -0.4697
     18 C          66.9554   94.5587   10.7326 C.ar    1  UNL1        0.1596
     19 C          66.4710   95.9783   10.7275 C.ar    1  UNL1        0.0921
     20 CL         66.0516   96.6322   12.0107 Cl      1  UNL1       -0.0791
     21 C          66.4061   96.7441    9.4393 C.ar    1  UNL1        0.0103
     22 C          66.8255   96.0902    8.1562 C.ar    1  UNL1       -0.0200
     23 C          66.7605   96.8560    6.8680 C.3     1  UNL1        0.0311
     24 C          67.3099   94.6705    8.1612 C.ar    1  UNL1        0.0103
     25 C          67.3748   93.9048    9.4494 C.ar    1  UNL1        0.0921
     26 CL         67.8592   92.4852    9.4544 Cl      1  UNL1       -0.0791
     27 N          63.0396   84.9982   10.2843 N.am    1  UNL1       -0.2770
     28 C          62.5129   85.5600   11.5715 C.2     1  UNL1        0.2270
     29 O          61.8106   86.8854   11.5797 O.2     1  UNL1       -0.2748
     30 C          63.7419   83.6728   10.2761 C.3     1  UNL1        0.0758
     31 C          63.7344   82.2005    9.9895 C.3     1  UNL1        0.0215
     32 C          64.9657   82.8495   10.5486 C.3     1  UNL1        0.0215
     33 C          62.8640   85.7619    9.0052 C.3     1  UNL1        0.1209
     34 C          60.2691   88.7542    9.2564 C.ar    1  UNL1       -0.0210
     35 C          59.1734   88.2550    8.3617 C.ar    1  UNL1       -0.0034
     36 C          59.3080   86.9249    7.6815 C.ar    1  UNL1        0.0108
     37 C          60.5382   86.0939    7.8960 C.ar    1  UNL1        0.0553
     38 CL         60.6727   84.7638    7.2159 Cl      1  UNL1       -0.0825
     39 C          61.6338   86.5929    8.7907 C.ar    1  UNL1        0.0079
     40 C          61.4993   87.9231    9.4709 C.ar    1  UNL1       -0.0060
     41 C          60.1346   90.0843    9.9366 C.3     1  UNL1        0.0434
     42 C          60.7822   90.3137   11.2700 C.3     1  UNL1        0.0733
     43 N          60.2235   89.6578   12.4979 N.3     1  UNL1       -0.2972
     44 H          60.9394   89.0174   12.8412 H       1  UNL1        0.1233
     45 C          58.1338   88.6332   13.6524 C.3     1  UNL1        0.0185
     46 C          58.9464   88.8755   12.4151 C.3     1  UNL1        0.0686
@<TRIPOS>BOND
     1    45    46    1
     2    46    43    1
     3    43    42    1
     4    42    41    1
     5    41    34    1
     6    34    35   ar
     7    35    36   ar
     8    36    37   ar
     9    37    38    1
    10    37    39   ar
    11    39    33    1
    12    33    27    1
    13    27    28   am
    14    28    29    2
    15     1    28    1
    16     1     2    1
    17     2     3    1
    18     3     4    1
    19     4     5    1
    20     5     6    1
    21     6     8    1
    22     8     9   ar
    23     9    10   ar
    24    10    11   ar
    25    11    14    1
    26    14    15    1
    27    15    16    1
    28    16    17    1
    29    17    18    1
    30    18    19   ar
    31    19    20    1
    32    19    21   ar
    33    21    22   ar
    34    22    23    1
    35    22    24   ar
    36    24    25   ar
    37    25    26    1
    38    11    12   ar
    39    12    13   ar
    40    27    30    1
    41    30    31    1
    42    31    32    1
    43    39    40   ar
    44    40    34   ar
    45     6     1    1
    46    13     8   ar
    47    32    30    1
    48    25    18   ar
    49    43    44    1
    50     3     7    1
@<TRIPOS>MOLECULE
*****
 46 50 0 0 0
SMALL
GASTEIGER

@<TRIPOS>ATOM
      1 C          62.3777   83.4551   12.7312 C.3     1  UNL1        0.0964
      2 C          62.1075   82.1586   12.0270 C.3     1  UNL1        0.0780
      3 N          62.0469   80.8794   12.8080 N.3     1  UNL1       -0.2970
      4 C          62.2565   80.8968   14.2931 C.3     1  UNL1        0.0689
      5 C          62.5267   82.1933   14.9973 C.3     1  UNL1        0.0220
      6 C          62.5873   83.4725   14.2164 C.3     1  UNL1        0.0337
      7 H          62.7586   80.2619   12.4174 H       1  UNL1        0.1233
      8 C          62.8575   84.7691   14.9206 C.ar    1  UNL1       -0.0217
      9 C          63.9606   85.6663   14.4429 C.ar    1  UNL1       -0.0012
     10 C          64.2308   86.9629   15.1471 C.ar    1  UNL1        0.0366
     11 C          63.3979   87.3622   16.3290 C.ar    1  UNL1        0.1387
     12 C          62.2948   86.4650   16.8066 C.ar    1  UNL1        0.0366
     13 C          62.0246   85.1685   16.1024 C.ar    1  UNL1       -0.0012
     14 O          63.6681   88.6588   17.0332 O.3     1  UNL1       -0.4714
     15 C          63.0327   89.9257   16.5420 C.3     1  UNL1        0.2525
     16 C          63.8894   91.0425   16.0238 C.3     1  UNL1        0.2525
     17 O          65.0216   90.7459   15.0855 O.3     1  UNL1       -0.4697
     18 C          65.2737   91.6403   13.9080 C.ar    1  UNL1        0.1596
     19 C          64.6046   91.3587   12.5954 C.ar    1  UNL1        0.0921
     20 CL         63.6834   90.1826   12.4603 Cl      1  UNL1       -0.0791
     21 C          64.8566   92.2530   11.4179 C.ar    1  UNL1        0.0103
     22 C          65.7778   93.4291   11.5530 C.ar    1  UNL1       -0.0200
     23 C          66.0299   94.3235   10.3755 C.3     1  UNL1        0.0311
     24 C          66.4469   93.7108   12.8656 C.ar    1  UNL1        0.0103
     25 C          66.1949   92.8164   14.0431 C.ar    1  UNL1        0.0921
     26 CL         66.8640   93.0981   15.3557 Cl      1  UNL1       -0.0791
     27 N          63.2440   84.8043   10.6869 N.am    1  UNL1       -0.2770
     28 C          62.4383   84.7344   11.9502 C.2     1  UNL1        0.2270
     29 O          61.6932   85.9436   12.4325 O.2     1  UNL1       -0.2748
     30 C          63.9890   83.5951   10.2045 C.3     1  UNL1        0.0758
     31 C          64.9699   82.4882   10.4549 C.3     1  UNL1        0.0215
     32 C          64.2986   82.6076    9.1188 C.3     1  UNL1        0.0215
     33 C          63.3046   86.0836    9.9058 C.3     1  UNL1        0.1209
     34 C          60.2935   88.6020    9.3219 C.ar    1  UNL1       -0.0210
     35 C          59.5308   87.8873    8.2460 C.ar    1  UNL1       -0.0034
     36 C          60.0260   86.5714    7.7235 C.ar    1  UNL1        0.0108
     37 C          61.2839   85.9701    8.2768 C.ar    1  UNL1        0.0553
     38 CL         61.7791   84.6542    7.7542 Cl      1  UNL1       -0.0825
     39 C          62.0466   86.6848    9.3526 C.ar    1  UNL1        0.0079
     40 C          61.5514   88.0008    9.8752 C.ar    1  UNL1       -0.0060
     41 C          59.7983   89.9180    9.8444 C.3     1  UNL1        0.0434
     42 C          60.3402   90.4658   11.1314 C.3     1  UNL1        0.0733
     43 N          59.9905   89.8074   12.4331 N.3     1  UNL1       -0.2972
     44 H          60.7601   89.1778   12.6607 H       1  UNL1        0.1233
     45 C          58.2215   88.6035   13.9066 C.3     1  UNL1        0.0185
     46 C          58.7270   89.0079   12.5535 C.3     1  UNL1        0.0686
@<TRIPOS>BOND
     1    45    46    1
     2    46    43    1
     3    43    42    1
     4    42    41    1
     5    41    34    1
     6    34    35   ar
     7    35    36   ar
     8    36    37   ar
     9    37    38    1
    10    37    39   ar
    11    39    33    1
    12    33    27    1
    13    27    28   am
    14    28    29    2
    15     1    28    1
    16     1     2    1
    17     2     3    1
    18     3     4    1
    19     4     5    1
    20     5     6    1
    21     6     8    1
    22     8     9   ar
    23     9    10   ar
    24    10    11   ar
    25    11    14    1
    26    14    15    1
    27    15    16    1
    28    16    17    1
    29    17    18    1
    30    18    19   ar
    31    19    20    1
    32    19    21   ar
    33    21    22   ar
    34    22    23    1
    35    22    24   ar
    36    24    25   ar
    37    25    26    1
    38    11    12   ar
    39    12    13   ar
    40    27    30    1
    41    30    31    1
    42    31    32    1
    43    39    40   ar
    44    40    34   ar
    45     6     1    1
    46    13     8   ar
    47    32    30    1
    48    25    18   ar
    49    43    44    1
    50     3     7    1
@<TRIPOS>MOLECULE
*****
 46 50 0 0 0
SMALL
GASTEIGER

@<TRIPOS>ATOM
      1 C          62.0425   95.5036    0.5577 C.3     1  UNL1        0.0964
      2 C          62.5812   96.6112   -0.2983 C.3     1  UNL1        0.0780
      3 N          64.0595   96.8559   -0.3656 N.3     1  UNL1       -0.2970
      4 C          64.9992   95.9929    0.4233 C.3     1  UNL1        0.0689
      5 C          64.4604   94.8852    1.2793 C.3     1  UNL1        0.0220
      6 C          62.9821   94.6406    1.3465 C.3     1  UNL1        0.0337
      7 H          64.2133   97.8162   -0.0581 H       1  UNL1        0.1233
      8 C          62.4434   93.5329    2.2026 C.ar    1  UNL1       -0.0217
      9 C          63.3324   92.3921    2.6001 C.ar    1  UNL1       -0.0012
     10 C          62.7937   91.2844    3.4562 C.ar    1  UNL1        0.0366
     11 C          61.3659   91.3175    3.9147 C.ar    1  UNL1        0.1387
     12 C          60.4768   92.4583    3.5172 C.ar    1  UNL1        0.0366
     13 C          61.0156   93.5660    2.6611 C.ar    1  UNL1       -0.0012
     14 O          60.8272   90.2098    4.7707 O.3     1  UNL1       -0.4714
     15 C          59.6492   90.4585    5.6654 C.3     1  UNL1        0.2525
     16 C          59.3036   89.4727    6.7418 C.3     1  UNL1        0.2525
     17 O          59.7569   89.7119    8.1516 O.3     1  UNL1       -0.4697
     18 C          60.4346   88.6149    8.9178 C.ar    1  UNL1        0.1596
     19 C          61.4917   88.9483    9.9285 C.ar    1  UNL1        0.0921
     20 CL         61.8710   90.3788   10.1729 Cl      1  UNL1       -0.0791
     21 C          62.1694   87.8512   10.6947 C.ar    1  UNL1        0.0103
     22 C          61.7900   86.4207   10.4503 C.ar    1  UNL1       -0.0200
     23 C          62.4677   85.3236   11.2166 C.3     1  UNL1        0.0311
     24 C          60.7329   86.0872    9.4396 C.ar    1  UNL1        0.0103
     25 C          60.0552   87.1843    8.6734 C.ar    1  UNL1        0.0921
     26 CL         58.9982   86.8509    7.6627 Cl      1  UNL1       -0.0791
     27 N          59.8892   94.4462   -0.4400 N.am    1  UNL1       -0.2770
     28 C          60.5640   95.2589    0.6249 C.2     1  UNL1        0.2270
     29 O          59.7605   95.8270    1.7570 O.2     1  UNL1       -0.2748
     30 C          60.6926   93.8781   -1.5721 C.3     1  UNL1        0.0758
     31 C          60.8833   93.6467   -3.0418 C.3     1  UNL1        0.0215
     32 C          61.8936   93.1256   -2.0632 C.3     1  UNL1        0.0215
     33 C          58.4107   94.2015   -0.3728 C.3     1  UNL1        0.1209
     34 C          56.4790   92.6615   -3.4787 C.ar    1  UNL1       -0.0210
     35 C          56.0041   93.9086   -4.1638 C.ar    1  UNL1       -0.0034
     36 C          56.3314   95.2532   -3.5853 C.ar    1  UNL1        0.0108
     37 C          57.1336   95.3509   -2.3216 C.ar    1  UNL1        0.0553
     38 CL         57.4609   96.6955   -1.7431 Cl      1  UNL1       -0.0825
     39 C          57.6085   94.1039   -1.6365 C.ar    1  UNL1        0.0079
     40 C          57.2812   92.7591   -2.2150 C.ar    1  UNL1       -0.0060
     41 C          56.1516   91.3169   -4.0573 C.3     1  UNL1        0.0434
     42 C          55.4056   90.3081   -3.2352 C.3     1  UNL1        0.0733
     43 N          54.7444   89.1384   -3.9021 N.3     1  UNL1       -0.2972
     44 H          55.4631   88.4255   -4.0268 H       1  UNL1        0.1233
     45 C          52.6355   88.9235   -5.4042 C.3     1  UNL1        0.0185
     46 C          54.0734   89.3142   -5.2321 C.3     1  UNL1        0.0686
@<TRIPOS>BOND
     1    45    46    1
     2    46    43    1
     3    43    42    1
     4    42    41    1
     5    41    34    1
     6    34    35   ar
     7    35    36   ar
     8    36    37   ar
     9    37    38    1
    10    37    39   ar
    11    39    33    1
    12    33    27    1
    13    27    28   am
    14    28    29    2
    15     1    28    1
    16     1     2    1
    17     2     3    1
    18     3     4    1
    19     4     5    1
    20     5     6    1
    21     6     8    1
    22     8     9   ar
    23     9    10   ar
    24    10    11   ar
    25    11    14    1
    26    14    15    1
    27    15    16    1
    28    16    17    1
    29    17    18    1
    30    18    19   ar
    31    19    20    1
    32    19    21   ar
    33    21    22   ar
    34    22    23    1
    35    22    24   ar
    36    24    25   ar
    37    25    26    1
    38    11    12   ar
    39    12    13   ar
    40    27    30    1
    41    30    31    1
    42    31    32    1
    43    39    40   ar
    44    40    34   ar
    45     6     1    1
    46    13     8   ar
    47    32    30    1
    48    25    18   ar
    49    43    44    1
    50     3     7    1
