@<TRIPOS>MOLECULE
*****
 35 38 0 0 0
SMALL
GASTEIGER

@<TRIPOS>ATOM
      1 C          60.8833   88.7492    9.3542 C.ar    1  UNL1       -0.0024
      2 C          60.1306   89.3016    8.1801 C.ar    1  UNL1       -0.0003
      3 C          59.1260   88.4481    7.4643 C.ar    1  UNL1       -0.0000
      4 C          58.8742   87.0422    7.9226 C.ar    1  UNL1       -0.0003
      5 C          59.6269   86.4898    9.0967 C.ar    1  UNL1       -0.0026
      6 C          60.6314   87.3434    9.8124 C.ar    1  UNL1       -0.0023
      7 C          63.8970   91.3099   11.5014 C.ar    1  UNL1       -0.0061
      8 C          63.2881   90.1272   12.1947 C.ar    1  UNL1       -0.0029
      9 C          62.2835   89.2736   11.4789 C.ar    1  UNL1       -0.0003
     10 C          61.8879   89.6028   10.0699 C.ar    1  UNL1       -0.0003
     11 C          62.4968   90.7854    9.3768 C.ar    1  UNL1       -0.0003
     12 C          63.5013   91.6390   10.0925 C.ar    1  UNL1       -0.0029
     13 C          64.9015   92.1634   12.2172 C.3     1  UNL1        0.0992
     14 C          66.6542   96.8159   10.7064 C.3     1  UNL1        0.0186
     15 C          66.7513   95.3193   10.6781 C.3     1  UNL1        0.0702
     16 C          65.7779   94.4897   11.4618 C.3     1  UNL1        0.0882
     17 N          65.8749   92.9931   11.4334 N.3     1  UNL1       -0.2666
     18 C          66.9453   92.3262   10.6213 C.3     1  UNL1        0.0882
     19 C          67.9186   93.1558    9.8376 C.3     1  UNL1        0.0702
     20 C          68.9890   92.4889    9.0255 C.3     1  UNL1        0.0186
     21 N          67.8216   94.6524    9.8660 N.3     1  UNL1       -0.2974
     22 H          67.6924   94.9574    8.9013 H       1  UNL1        0.1232
     23 C          61.3841   86.7910   10.9865 C.3     1  UNL1        0.1202
     24 N          62.3674   85.6755   10.7895 N.am    1  UNL1       -0.2734
     25 C          62.8254   85.3148    9.4075 C.3     1  UNL1        0.1152
     26 C          62.8926   84.9206   11.9746 C.2     1  UNL1        0.2304
     27 O          62.4345   85.2813   13.3566 O.2     1  UNL1       -0.2745
     28 C          63.8758   83.8051   11.7776 C.3     1  UNL1        0.1116
     29 C          63.4302   82.3795   11.9156 C.ar    1  UNL1       -0.0122
     30 C          63.0471   81.8404   13.2619 C.ar    1  UNL1       -0.0037
     31 C          62.6016   80.4148   13.3999 C.ar    1  UNL1        0.0006
     32 C          62.5391   79.5282   12.1916 C.ar    1  UNL1        0.0114
     33 C          62.9222   80.0673   10.8452 C.ar    1  UNL1        0.0574
     34 CL         62.8597   79.1808    9.6369 Cl      1  UNL1       -0.0823
     35 C          63.3677   81.4929   10.7072 C.ar    1  UNL1        0.0076
@<TRIPOS>BOND
     1    15    14    1
     2    15    16    1
     3    16    17    1
     4    17    13    1
     5    13     7    1
     6     7     8   ar
     7     8     9   ar
     8     9    10   ar
     9    10     1    1
    10     1     2   ar
    11     2     3   ar
    12     3     4   ar
    13     4     5   ar
    14     5     6   ar
    15     6    23    1
    16    23    24    1
    17    24    25    1
    18    24    26   am
    19    26    27    2
    20    26    28    1
    21    28    29    1
    22    29    30   ar
    23    30    31   ar
    24    31    32   ar
    25    32    33   ar
    26    33    34    1
    27    33    35   ar
    28    10    11   ar
    29    11    12   ar
    30    17    18    1
    31    18    19    1
    32    19    20    1
    33    19    21    1
    34    21    15    1
    35    12     7   ar
    36     6     1   ar
    37    35    29   ar
    38    21    22    1
@<TRIPOS>MOLECULE
*****
 35 38 0 0 0
SMALL
GASTEIGER

@<TRIPOS>ATOM
      1 C          60.9818   88.5069    9.1390 C.ar    1  UNL1       -0.0024
      2 C          59.7216   89.0885    8.5699 C.ar    1  UNL1       -0.0003
      3 C          58.7709   88.2153    7.8059 C.ar    1  UNL1       -0.0000
      4 C          59.0803   86.7606    7.6110 C.ar    1  UNL1       -0.0003
      5 C          60.3405   86.1790    8.1800 C.ar    1  UNL1       -0.0026
      6 C          61.2912   87.0522    8.9440 C.ar    1  UNL1       -0.0023
      7 C          63.8340   91.1264   11.4309 C.ar    1  UNL1       -0.0061
      8 C          63.3252   89.8555   12.0441 C.ar    1  UNL1       -0.0029
      9 C          62.3745   88.9823   11.2801 C.ar    1  UNL1       -0.0003
     10 C          61.9325   89.3801    9.9029 C.ar    1  UNL1       -0.0003
     11 C          62.4412   90.6510    9.2899 C.ar    1  UNL1       -0.0003
     12 C          63.3920   91.5242   10.0538 C.ar    1  UNL1       -0.0029
     13 C          64.7847   91.9996   12.1949 C.3     1  UNL1        0.0992
     14 C          68.8974   92.4844    9.0563 C.3     1  UNL1        0.0186
     15 C          67.8185   93.1099    9.8898 C.3     1  UNL1        0.0702
     16 C          66.8411   92.2421   10.6256 C.3     1  UNL1        0.0882
     17 N          65.7621   92.8676   11.4591 N.3     1  UNL1       -0.2666
     18 C          65.6606   94.3609   11.5568 C.3     1  UNL1        0.0882
     19 C          66.6381   95.2288   10.8210 C.3     1  UNL1        0.0702
     20 C          66.5366   96.7222   10.9187 C.3     1  UNL1        0.0186
     21 N          67.7170   94.6033    9.9875 N.3     1  UNL1       -0.2974
     22 H          68.6066   94.9351   10.3602 H       1  UNL1        0.1232
     23 C          62.5514   86.4706    9.5130 C.3     1  UNL1        0.1202
     24 N          62.4769   85.4005   10.5614 N.am    1  UNL1       -0.2734
     25 C          61.7190   85.6470   11.8321 C.3     1  UNL1        0.1152
     26 C          63.1602   84.0838   10.3391 C.2     1  UNL1        0.2304
     27 O          63.9181   83.8373    9.0684 O.2     1  UNL1       -0.2745
     28 C          63.0857   83.0137   11.3876 C.3     1  UNL1        0.1116
     29 C          63.3389   83.3543   12.8263 C.ar    1  UNL1       -0.0122
     30 C          62.4457   82.8004   13.8965 C.ar    1  UNL1       -0.0037
     31 C          62.6989   83.1410   15.3352 C.ar    1  UNL1        0.0006
     32 C          63.8451   84.0356   15.7037 C.ar    1  UNL1        0.0114
     33 C          64.7383   84.5896   14.6334 C.ar    1  UNL1        0.0574
     34 CL         65.8846   85.4841   15.0019 Cl      1  UNL1       -0.0823
     35 C          64.4852   84.2490   13.1947 C.ar    1  UNL1        0.0076
@<TRIPOS>BOND
     1    15    14    1
     2    15    16    1
     3    16    17    1
     4    17    13    1
     5    13     7    1
     6     7     8   ar
     7     8     9   ar
     8     9    10   ar
     9    10     1    1
    10     1     2   ar
    11     2     3   ar
    12     3     4   ar
    13     4     5   ar
    14     5     6   ar
    15     6    23    1
    16    23    24    1
    17    24    25    1
    18    24    26   am
    19    26    27    2
    20    26    28    1
    21    28    29    1
    22    29    30   ar
    23    30    31   ar
    24    31    32   ar
    25    32    33   ar
    26    33    34    1
    27    33    35   ar
    28    10    11   ar
    29    11    12   ar
    30    17    18    1
    31    18    19    1
    32    19    20    1
    33    19    21    1
    34    21    15    1
    35    12     7   ar
    36     6     1   ar
    37    35    29   ar
    38    21    22    1
@<TRIPOS>MOLECULE
*****
 35 38 0 0 0
SMALL
GASTEIGER

@<TRIPOS>ATOM
      1 C          60.8501   88.7415    9.3328 C.ar    1  UNL1       -0.0024
      2 C          60.2078   89.3560    8.1245 C.ar    1  UNL1       -0.0003
      3 C          59.3057   88.5324    7.2541 C.ar    1  UNL1       -0.0000
      4 C          59.0458   87.0941    7.5919 C.ar    1  UNL1       -0.0003
      5 C          59.6881   86.4797    8.8002 C.ar    1  UNL1       -0.0026
      6 C          60.5902   87.3034    9.6706 C.ar    1  UNL1       -0.0023
      7 C          63.5566   91.2126   11.9440 C.ar    1  UNL1       -0.0061
      8 C          63.3508   91.5907   10.5070 C.ar    1  UNL1       -0.0029
      9 C          62.4487   90.7670    9.6366 C.ar    1  UNL1       -0.0003
     10 C          61.7523   89.5652   10.2032 C.ar    1  UNL1       -0.0003
     11 C          61.9581   89.1872   11.6401 C.ar    1  UNL1       -0.0003
     12 C          62.8603   90.0109   12.5105 C.ar    1  UNL1       -0.0029
     13 C          64.4588   92.0363   12.8144 C.3     1  UNL1        0.0992
     14 C          68.4437   92.1770    9.4827 C.3     1  UNL1        0.0186
     15 C          67.9288   92.1267   10.8906 C.3     1  UNL1        0.0702
     16 C          66.4513   92.1067   11.1486 C.3     1  UNL1        0.0882
     17 N          65.9364   92.0563   12.5565 N.3     1  UNL1       -0.2666
     18 C          66.8989   92.0259   13.7065 C.3     1  UNL1        0.0882
     19 C          68.3764   92.0459   13.4486 C.3     1  UNL1        0.0702
     20 C          69.3390   92.0155   14.5986 C.3     1  UNL1        0.0186
     21 N          68.8913   92.0963   12.0406 N.3     1  UNL1       -0.2974
     22 H          69.4779   91.2718   11.9120 H       1  UNL1        0.1232
     23 C          61.2325   86.6889   10.8789 C.3     1  UNL1        0.1202
     24 N          62.2545   85.6033   10.7146 N.am    1  UNL1       -0.2734
     25 C          62.7603   85.2501    9.3474 C.3     1  UNL1        0.1152
     26 C          62.7707   84.8709   11.9176 C.2     1  UNL1        0.2304
     27 O          62.2649   85.2241   13.2849 O.2     1  UNL1       -0.2745
     28 C          63.7927   83.7854   11.7534 C.3     1  UNL1        0.1116
     29 C          63.3843   82.3468   11.8704 C.ar    1  UNL1       -0.0122
     30 C          63.0544   81.7678   13.2143 C.ar    1  UNL1       -0.0037
     31 C          62.6460   80.3292   13.3314 C.ar    1  UNL1        0.0006
     32 C          62.5674   79.4697   12.1046 C.ar    1  UNL1        0.0114
     33 C          62.8972   80.0487   10.7607 C.ar    1  UNL1        0.0574
     34 CL         62.8186   79.1891    9.5340 Cl      1  UNL1       -0.0823
     35 C          63.3056   81.4872   10.6436 C.ar    1  UNL1        0.0076
@<TRIPOS>BOND
     1    15    14    1
     2    15    16    1
     3    16    17    1
     4    17    13    1
     5    13     7    1
     6     7     8   ar
     7     8     9   ar
     8     9    10   ar
     9    10     1    1
    10     1     2   ar
    11     2     3   ar
    12     3     4   ar
    13     4     5   ar
    14     5     6   ar
    15     6    23    1
    16    23    24    1
    17    24    25    1
    18    24    26   am
    19    26    27    2
    20    26    28    1
    21    28    29    1
    22    29    30   ar
    23    30    31   ar
    24    31    32   ar
    25    32    33   ar
    26    33    34    1
    27    33    35   ar
    28    10    11   ar
    29    11    12   ar
    30    17    18    1
    31    18    19    1
    32    19    20    1
    33    19    21    1
    34    21    15    1
    35    12     7   ar
    36     6     1   ar
    37    35    29   ar
    38    21    22    1
@<TRIPOS>MOLECULE
*****
 35 38 0 0 0
SMALL
GASTEIGER

@<TRIPOS>ATOM
      1 C          60.9502   88.4593    9.0763 C.ar    1  UNL1       -0.0024
      2 C          59.7156   89.0621    8.4743 C.ar    1  UNL1       -0.0003
      3 C          58.7645   88.2026    7.6955 C.ar    1  UNL1       -0.0000
      4 C          59.0481   86.7402    7.5186 C.ar    1  UNL1       -0.0003
      5 C          60.2827   86.1375    8.1205 C.ar    1  UNL1       -0.0026
      6 C          61.2338   86.9971    8.8994 C.ar    1  UNL1       -0.0023
      7 C          63.8035   91.0380   11.4128 C.ar    1  UNL1       -0.0061
      8 C          63.3088   89.7477   11.9964 C.ar    1  UNL1       -0.0029
      9 C          62.3577   88.8882   11.2176 C.ar    1  UNL1       -0.0003
     10 C          61.9013   89.3189    9.8551 C.ar    1  UNL1       -0.0003
     11 C          62.3960   90.6091    9.2715 C.ar    1  UNL1       -0.0003
     12 C          63.3471   91.4687   10.0504 C.ar    1  UNL1       -0.0029
     13 C          64.7546   91.8976   12.1916 C.3     1  UNL1        0.0992
     14 C          66.4700   96.6511   10.9827 C.3     1  UNL1        0.0186
     15 C          66.5850   95.1600   10.8664 C.3     1  UNL1        0.0702
     16 C          65.6124   94.2743   11.5872 C.3     1  UNL1        0.0882
     17 N          65.7273   92.7833   11.4708 N.3     1  UNL1       -0.2666
     18 C          66.8148   92.1779   10.6337 C.3     1  UNL1        0.0882
     19 C          67.7874   93.0636    9.9129 C.3     1  UNL1        0.0702
     20 C          68.8750   92.4583    9.0757 C.3     1  UNL1        0.0186
     21 N          67.6725   94.5547   10.0293 N.3     1  UNL1       -0.2974
     22 H          67.5509   94.9154    9.0829 H       1  UNL1        0.1232
     23 C          62.4685   86.3943    9.5013 C.3     1  UNL1        0.1202
     24 N          62.3732   85.5996   10.7699 N.am    1  UNL1       -0.2734
     25 C          61.5781   86.1269   11.9273 C.3     1  UNL1        0.1152
     26 C          63.0729   84.2774   10.8810 C.2     1  UNL1        0.2304
     27 O          63.8680   83.7501    9.7235 O.2     1  UNL1       -0.2745
     28 C          62.9776   83.4827   12.1495 C.3     1  UNL1        0.1116
     29 C          63.4768   84.0649   13.4387 C.ar    1  UNL1       -0.0122
     30 C          64.9458   84.2914   13.6403 C.ar    1  UNL1       -0.0037
     31 C          65.4450   84.8737   14.9294 C.ar    1  UNL1        0.0006
     32 C          64.4751   85.2295   16.0169 C.ar    1  UNL1        0.0114
     33 C          63.0060   85.0030   15.8153 C.ar    1  UNL1        0.0574
     34 CL         62.0362   85.3588   16.9029 Cl      1  UNL1       -0.0823
     35 C          62.5068   84.4207   14.5262 C.ar    1  UNL1        0.0076
@<TRIPOS>BOND
     1    15    14    1
     2    15    16    1
     3    16    17    1
     4    17    13    1
     5    13     7    1
     6     7     8   ar
     7     8     9   ar
     8     9    10   ar
     9    10     1    1
    10     1     2   ar
    11     2     3   ar
    12     3     4   ar
    13     4     5   ar
    14     5     6   ar
    15     6    23    1
    16    23    24    1
    17    24    25    1
    18    24    26   am
    19    26    27    2
    20    26    28    1
    21    28    29    1
    22    29    30   ar
    23    30    31   ar
    24    31    32   ar
    25    32    33   ar
    26    33    34    1
    27    33    35   ar
    28    10    11   ar
    29    11    12   ar
    30    17    18    1
    31    18    19    1
    32    19    20    1
    33    19    21    1
    34    21    15    1
    35    12     7   ar
    36     6     1   ar
    37    35    29   ar
    38    21    22    1
@<TRIPOS>MOLECULE
*****
 35 38 0 0 0
SMALL
GASTEIGER

@<TRIPOS>ATOM
      1 C          64.7060   89.8075   14.2198 C.ar    1  UNL1       -0.0024
      2 C          66.0565   90.3274   14.6144 C.ar    1  UNL1       -0.0003
      3 C          66.4637   91.7207   14.2362 C.ar    1  UNL1       -0.0000
      4 C          65.5202   92.5940   13.4633 C.ar    1  UNL1       -0.0003
      5 C          64.1697   92.0741   13.0687 C.ar    1  UNL1       -0.0026
      6 C          63.7626   90.6808   13.4469 C.ar    1  UNL1       -0.0023
      7 C          63.4846   85.6277   15.3546 C.ar    1  UNL1       -0.0061
      8 C          63.4842   86.7156   16.3873 C.ar    1  UNL1       -0.0029
      9 C          63.8914   88.1089   16.0090 C.ar    1  UNL1       -0.0003
     10 C          64.2988   88.4142   14.5980 C.ar    1  UNL1       -0.0003
     11 C          64.2991   87.3263   13.5654 C.ar    1  UNL1       -0.0003
     12 C          63.8920   85.9331   13.9436 C.ar    1  UNL1       -0.0029
     13 C          63.0774   84.2345   15.7328 C.3     1  UNL1        0.0992
     14 C          60.4514   80.1038   13.9887 C.3     1  UNL1        0.0186
     15 C          61.5130   81.1454   13.7936 C.3     1  UNL1        0.0702
     16 C          61.7645   82.1691   14.8607 C.3     1  UNL1        0.0882
     17 N          62.8260   83.2107   14.6656 N.3     1  UNL1       -0.2666
     18 C          63.6362   83.2287   13.4034 C.3     1  UNL1        0.0882
     19 C          63.3847   82.2050   12.3362 C.3     1  UNL1        0.0702
     20 C          64.1949   82.2229   11.0739 C.3     1  UNL1        0.0186
     21 N          62.3231   81.1634   12.5314 N.3     1  UNL1       -0.2974
     22 H          62.7849   80.2563   12.4649 H       1  UNL1        0.1232
     23 C          62.4120   90.1609   13.0523 C.3     1  UNL1        0.1202
     24 N          62.0381   90.0687   11.6026 N.am    1  UNL1       -0.2734
     25 C          63.0199   90.4833   10.5471 C.3     1  UNL1        0.1152
     26 C          60.6824   89.5620   11.2085 C.2     1  UNL1        0.2304
     27 O          59.7006   89.1474   12.2640 O.2     1  UNL1       -0.2745
     28 C          60.3085   89.4698    9.7588 C.3     1  UNL1        0.1116
     29 C          60.4403   88.1644    9.0318 C.ar    1  UNL1       -0.0122
     30 C          59.3435   87.6996    8.1202 C.ar    1  UNL1       -0.0037
     31 C          59.4753   86.3942    7.3931 C.ar    1  UNL1        0.0006
     32 C          60.7038   85.5536    7.5777 C.ar    1  UNL1        0.0114
     33 C          61.8006   86.0184    8.4894 C.ar    1  UNL1        0.0574
     34 CL         63.0291   85.1778    8.6740 Cl      1  UNL1       -0.0823
     35 C          61.6689   87.3238    9.2164 C.ar    1  UNL1        0.0076
@<TRIPOS>BOND
     1    15    14    1
     2    15    16    1
     3    16    17    1
     4    17    13    1
     5    13     7    1
     6     7     8   ar
     7     8     9   ar
     8     9    10   ar
     9    10     1    1
    10     1     2   ar
    11     2     3   ar
    12     3     4   ar
    13     4     5   ar
    14     5     6   ar
    15     6    23    1
    16    23    24    1
    17    24    25    1
    18    24    26   am
    19    26    27    2
    20    26    28    1
    21    28    29    1
    22    29    30   ar
    23    30    31   ar
    24    31    32   ar
    25    32    33   ar
    26    33    34    1
    27    33    35   ar
    28    10    11   ar
    29    11    12   ar
    30    17    18    1
    31    18    19    1
    32    19    20    1
    33    19    21    1
    34    21    15    1
    35    12     7   ar
    36     6     1   ar
    37    35    29   ar
    38    21    22    1
@<TRIPOS>MOLECULE
*****
 35 38 0 0 0
SMALL
GASTEIGER

@<TRIPOS>ATOM
      1 C          64.7378   89.8311   14.2132 C.ar    1  UNL1       -0.0024
      2 C          66.0927   90.3424   14.6043 C.ar    1  UNL1       -0.0003
      3 C          66.5090   91.7318   14.2218 C.ar    1  UNL1       -0.0000
      4 C          65.5705   92.6099   13.4483 C.ar    1  UNL1       -0.0003
      5 C          64.2157   92.0985   13.0573 C.ar    1  UNL1       -0.0026
      6 C          63.7993   90.7091   13.4397 C.ar    1  UNL1       -0.0023
      7 C          63.4886   85.6630   15.3606 C.ar    1  UNL1       -0.0061
      8 C          63.9070   85.9593   13.9509 C.ar    1  UNL1       -0.0029
      9 C          64.3234   87.3486   13.5684 C.ar    1  UNL1       -0.0003
     10 C          64.3214   88.4417   14.5957 C.ar    1  UNL1       -0.0003
     11 C          63.9031   88.1454   16.0053 C.ar    1  UNL1       -0.0003
     12 C          63.4867   86.7561   16.3878 C.ar    1  UNL1       -0.0029
     13 C          63.0723   84.2736   15.7431 C.3     1  UNL1        0.0992
     14 C          64.1632   82.2380   11.0884 C.3     1  UNL1        0.0186
     15 C          63.3541   82.2322   12.3515 C.3     1  UNL1        0.0702
     16 C          63.6177   83.2558   13.4157 C.3     1  UNL1        0.0882
     17 N          62.8086   83.2499   14.6788 N.3     1  UNL1       -0.2666
     18 C          61.7360   82.2205   14.8776 C.3     1  UNL1        0.0882
     19 C          61.4724   81.1969   13.8133 C.3     1  UNL1        0.0702
     20 C          60.3997   80.1673   14.0121 C.3     1  UNL1        0.0186
     21 N          62.2815   81.2027   12.5503 N.3     1  UNL1       -0.2974
     22 H          61.6227   81.3112   11.7791 H       1  UNL1        0.1232
     23 C          62.4444   90.1978   13.0486 C.3     1  UNL1        0.1202
     24 N          62.0694   90.0996   11.5996 N.am    1  UNL1       -0.2734
     25 C          63.0586   90.4876   10.5410 C.3     1  UNL1        0.1152
     26 C          60.7051   89.6134   11.2093 C.2     1  UNL1        0.2304
     27 O          59.7159   89.2254   12.2680 O.2     1  UNL1       -0.2745
     28 C          60.3301   89.5151    9.7603 C.3     1  UNL1        0.1116
     29 C          60.4570   88.2056    9.0398 C.ar    1  UNL1       -0.0122
     30 C          59.3649   87.7469    8.1197 C.ar    1  UNL1       -0.0037
     31 C          59.4919   86.4374    7.3992 C.ar    1  UNL1        0.0006
     32 C          60.7110   85.5867    7.5988 C.ar    1  UNL1        0.0114
     33 C          61.8032   86.0454    8.5190 C.ar    1  UNL1        0.0574
     34 CL         63.0223   85.1946    8.7187 Cl      1  UNL1       -0.0823
     35 C          61.6762   87.3549    9.2395 C.ar    1  UNL1        0.0076
@<TRIPOS>BOND
     1    15    14    1
     2    15    16    1
     3    16    17    1
     4    17    13    1
     5    13     7    1
     6     7     8   ar
     7     8     9   ar
     8     9    10   ar
     9    10     1    1
    10     1     2   ar
    11     2     3   ar
    12     3     4   ar
    13     4     5   ar
    14     5     6   ar
    15     6    23    1
    16    23    24    1
    17    24    25    1
    18    24    26   am
    19    26    27    2
    20    26    28    1
    21    28    29    1
    22    29    30   ar
    23    30    31   ar
    24    31    32   ar
    25    32    33   ar
    26    33    34    1
    27    33    35   ar
    28    10    11   ar
    29    11    12   ar
    30    17    18    1
    31    18    19    1
    32    19    20    1
    33    19    21    1
    34    21    15    1
    35    12     7   ar
    36     6     1   ar
    37    35    29   ar
    38    21    22    1
@<TRIPOS>MOLECULE
*****
 35 38 0 0 0
SMALL
GASTEIGER

@<TRIPOS>ATOM
      1 C          60.9288   88.2655    8.9963 C.ar    1  UNL1       -0.0024
      2 C          59.6913   88.7823    8.3242 C.ar    1  UNL1       -0.0003
      3 C          58.8918   87.8817    7.4299 C.ar    1  UNL1       -0.0000
      4 C          59.3298   86.4643    7.2078 C.ar    1  UNL1       -0.0003
      5 C          60.5672   85.9476    7.8799 C.ar    1  UNL1       -0.0026
      6 C          61.3667   86.8482    8.7742 C.ar    1  UNL1       -0.0023
      7 C          63.3274   90.9674   11.6790 C.ar    1  UNL1       -0.0061
      8 C          63.0051   91.3955   10.2779 C.ar    1  UNL1       -0.0029
      9 C          62.2055   90.4949    9.3837 C.ar    1  UNL1       -0.0003
     10 C          61.7283   89.1661    9.8905 C.ar    1  UNL1       -0.0003
     11 C          62.0507   88.7381   11.2915 C.ar    1  UNL1       -0.0003
     12 C          62.8502   89.6387   12.1858 C.ar    1  UNL1       -0.0029
     13 C          64.1269   91.8680   12.5732 C.3     1  UNL1        0.0992
     14 C          68.8571   91.8906   14.7238 C.3     1  UNL1        0.0186
     15 C          67.9837   91.9461   13.5056 C.3     1  UNL1        0.0702
     16 C          66.4920   91.8793   13.6485 C.3     1  UNL1        0.0882
     17 N          65.6186   91.9348   12.4303 N.3     1  UNL1       -0.2666
     18 C          66.2369   92.0572   11.0691 C.3     1  UNL1        0.0882
     19 C          67.7285   92.1240   10.9262 C.3     1  UNL1        0.0702
     20 C          68.3468   92.2464    9.5650 C.3     1  UNL1        0.0186
     21 N          68.6019   92.0685   12.1444 N.3     1  UNL1       -0.2974
     22 H          69.1561   92.9248   12.1486 H       1  UNL1        0.1232
     23 C          62.6042   86.3314    9.4463 C.3     1  UNL1        0.1202
     24 N          62.4909   85.3417   10.5677 N.am    1  UNL1       -0.2734
     25 C          61.6190   85.6445   11.7501 C.3     1  UNL1        0.1152
     26 C          63.2495   84.0491   10.5067 C.2     1  UNL1        0.2304
     27 O          64.1214   83.7462    9.3243 O.2     1  UNL1       -0.2745
     28 C          63.1362   83.0593   11.6281 C.3     1  UNL1        0.1116
     29 C          63.2936   83.5142   13.0487 C.ar    1  UNL1       -0.0122
     30 C          62.4399   82.9155   14.1269 C.ar    1  UNL1       -0.0037
     31 C          62.5973   83.3704   15.5476 C.ar    1  UNL1        0.0006
     32 C          63.6084   84.4241   15.8900 C.ar    1  UNL1        0.0114
     33 C          64.4622   85.0229   14.8118 C.ar    1  UNL1        0.0574
     34 CL         65.4734   86.0766   15.1542 Cl      1  UNL1       -0.0823
     35 C          64.3048   84.5680   13.3911 C.ar    1  UNL1        0.0076
@<TRIPOS>BOND
     1    15    14    1
     2    15    16    1
     3    16    17    1
     4    17    13    1
     5    13     7    1
     6     7     8   ar
     7     8     9   ar
     8     9    10   ar
     9    10     1    1
    10     1     2   ar
    11     2     3   ar
    12     3     4   ar
    13     4     5   ar
    14     5     6   ar
    15     6    23    1
    16    23    24    1
    17    24    25    1
    18    24    26   am
    19    26    27    2
    20    26    28    1
    21    28    29    1
    22    29    30   ar
    23    30    31   ar
    24    31    32   ar
    25    32    33   ar
    26    33    34    1
    27    33    35   ar
    28    10    11   ar
    29    11    12   ar
    30    17    18    1
    31    18    19    1
    32    19    20    1
    33    19    21    1
    34    21    15    1
    35    12     7   ar
    36     6     1   ar
    37    35    29   ar
    38    21    22    1
@<TRIPOS>MOLECULE
*****
 35 38 0 0 0
SMALL
GASTEIGER

@<TRIPOS>ATOM
      1 C          63.5883   88.6289   15.1882 C.ar    1  UNL1       -0.0024
      2 C          63.0914   89.1198   16.5156 C.ar    1  UNL1       -0.0003
      3 C          62.9435   88.1632   17.6615 C.ar    1  UNL1       -0.0000
      4 C          63.2927   86.7157   17.4799 C.ar    1  UNL1       -0.0003
      5 C          63.7896   86.2248   16.1525 C.ar    1  UNL1       -0.0026
      6 C          63.9374   87.1814   15.0066 C.ar    1  UNL1       -0.0023
      7 C          64.0317   91.4987   11.7505 C.ar    1  UNL1       -0.0061
      8 C          62.9421   90.4679   11.7312 C.ar    1  UNL1       -0.0029
      9 C          62.7943   89.5113   12.8771 C.ar    1  UNL1       -0.0003
     10 C          63.7361   89.5855   14.0423 C.ar    1  UNL1       -0.0003
     11 C          64.8257   90.6162   14.0615 C.ar    1  UNL1       -0.0003
     12 C          64.9735   91.5728   12.9156 C.ar    1  UNL1       -0.0029
     13 C          64.1796   92.4553   10.6046 C.3     1  UNL1        0.0992
     14 C          69.2042   92.3731    9.2832 C.3     1  UNL1        0.0186
     15 C          67.9908   93.1333    9.7300 C.3     1  UNL1        0.0702
     16 C          66.6919   92.4142    9.9439 C.3     1  UNL1        0.0882
     17 N          65.4785   93.1744   10.3907 N.3     1  UNL1       -0.2666
     18 C          65.5640   94.6537   10.6237 C.3     1  UNL1        0.0882
     19 C          66.8628   95.3728   10.4099 C.3     1  UNL1        0.0702
     20 C          66.9484   96.8522   10.6429 C.3     1  UNL1        0.0186
     21 N          68.0763   94.6126    9.9630 N.3     1  UNL1       -0.2974
     22 H          68.7930   94.7577   10.6741 H       1  UNL1        0.1232
     23 C          64.4343   86.6905   13.6791 C.3     1  UNL1        0.1202
     24 N          63.5302   85.8902   12.7892 N.am    1  UNL1       -0.2734
     25 C          62.4959   86.5833   11.9526 C.3     1  UNL1        0.1152
     26 C          63.6604   84.3968   12.7358 C.2     1  UNL1        0.2304
     27 O          64.6946   83.7037   13.5723 O.2     1  UNL1       -0.2745
     28 C          62.7563   83.5965   11.8458 C.3     1  UNL1        0.1116
     29 C          62.6549   82.1103   12.0212 C.ar    1  UNL1       -0.0122
     30 C          62.3399   81.5339   13.3697 C.ar    1  UNL1       -0.0037
     31 C          62.2385   80.0477   13.5450 C.ar    1  UNL1        0.0006
     32 C          62.4522   79.1377   12.3719 C.ar    1  UNL1        0.0114
     33 C          62.7673   79.7141   11.0233 C.ar    1  UNL1        0.0574
     34 CL         62.9810   78.8041    9.8501 Cl      1  UNL1       -0.0823
     35 C          62.8686   81.2003   10.8479 C.ar    1  UNL1        0.0076
@<TRIPOS>BOND
     1    15    14    1
     2    15    16    1
     3    16    17    1
     4    17    13    1
     5    13     7    1
     6     7     8   ar
     7     8     9   ar
     8     9    10   ar
     9    10     1    1
    10     1     2   ar
    11     2     3   ar
    12     3     4   ar
    13     4     5   ar
    14     5     6   ar
    15     6    23    1
    16    23    24    1
    17    24    25    1
    18    24    26   am
    19    26    27    2
    20    26    28    1
    21    28    29    1
    22    29    30   ar
    23    30    31   ar
    24    31    32   ar
    25    32    33   ar
    26    33    34    1
    27    33    35   ar
    28    10    11   ar
    29    11    12   ar
    30    17    18    1
    31    18    19    1
    32    19    20    1
    33    19    21    1
    34    21    15    1
    35    12     7   ar
    36     6     1   ar
    37    35    29   ar
    38    21    22    1
@<TRIPOS>MOLECULE
*****
 35 38 0 0 0
SMALL
GASTEIGER

@<TRIPOS>ATOM
      1 C          63.5265   88.6846   15.3979 C.ar    1  UNL1       -0.0024
      2 C          62.9529   89.2013   16.6841 C.ar    1  UNL1       -0.0003
      3 C          62.8025   88.2830   17.8606 C.ar    1  UNL1       -0.0000
      4 C          63.2256   86.8480   17.7509 C.ar    1  UNL1       -0.0003
      5 C          63.7992   86.3314   16.4648 C.ar    1  UNL1       -0.0026
      6 C          63.9496   87.2497   15.2883 C.ar    1  UNL1       -0.0023
      7 C          63.9778   91.4394   11.8685 C.ar    1  UNL1       -0.0061
      8 C          62.7301   90.6219   12.0271 C.ar    1  UNL1       -0.0029
      9 C          62.5797   89.7036   13.2036 C.ar    1  UNL1       -0.0003
     10 C          63.6769   89.6029   14.2214 C.ar    1  UNL1       -0.0003
     11 C          64.9245   90.4203   14.0628 C.ar    1  UNL1       -0.0003
     12 C          65.0750   91.3386   12.8863 C.ar    1  UNL1       -0.0029
     13 C          64.1282   92.3577   10.6920 C.3     1  UNL1        0.0992
     14 C          69.1386   92.3958    9.3155 C.3     1  UNL1        0.0186
     15 C          67.9175   93.1234    9.7945 C.3     1  UNL1        0.0702
     16 C          66.6335   92.3768   10.0037 C.3     1  UNL1        0.0882
     17 N          65.4123   93.1044   10.4827 N.3     1  UNL1       -0.2666
     18 C          65.4752   94.5786   10.7524 C.3     1  UNL1        0.0882
     19 C          66.7592   95.3251   10.5432 C.3     1  UNL1        0.0702
     20 C          66.8221   96.7994   10.8129 C.3     1  UNL1        0.0186
     21 N          67.9804   94.5976   10.0642 N.3     1  UNL1       -0.2974
     22 H          68.7024   94.7370   10.7711 H       1  UNL1        0.1232
     23 C          64.5232   86.7330   14.0021 C.3     1  UNL1        0.1202
     24 N          63.7991   85.6688   13.2320 N.am    1  UNL1       -0.2734
     25 C          63.9548   84.2274   13.6169 C.3     1  UNL1        0.1152
     26 C          62.9193   86.0459   12.0771 C.2     1  UNL1        0.2304
     27 O          62.7637   87.4873   11.6923 O.2     1  UNL1       -0.2745
     28 C          62.1953   84.9817   11.3070 C.3     1  UNL1        0.1116
     29 C          61.9245   85.1679    9.8435 C.ar    1  UNL1       -0.0122
     30 C          62.8751   84.6074    8.8276 C.ar    1  UNL1       -0.0037
     31 C          62.6043   84.7936    7.3640 C.ar    1  UNL1        0.0006
     32 C          61.3829   85.5403    6.9164 C.ar    1  UNL1        0.0114
     33 C          60.4322   86.1009    7.9323 C.ar    1  UNL1        0.0574
     34 CL         59.2107   86.8476    7.4846 Cl      1  UNL1       -0.0823
     35 C          60.7030   85.9147    9.3958 C.ar    1  UNL1        0.0076
@<TRIPOS>BOND
     1    15    14    1
     2    15    16    1
     3    16    17    1
     4    17    13    1
     5    13     7    1
     6     7     8   ar
     7     8     9   ar
     8     9    10   ar
     9    10     1    1
    10     1     2   ar
    11     2     3   ar
    12     3     4   ar
    13     4     5   ar
    14     5     6   ar
    15     6    23    1
    16    23    24    1
    17    24    25    1
    18    24    26   am
    19    26    27    2
    20    26    28    1
    21    28    29    1
    22    29    30   ar
    23    30    31   ar
    24    31    32   ar
    25    32    33   ar
    26    33    34    1
    27    33    35   ar
    28    10    11   ar
    29    11    12   ar
    30    17    18    1
    31    18    19    1
    32    19    20    1
    33    19    21    1
    34    21    15    1
    35    12     7   ar
    36     6     1   ar
    37    35    29   ar
    38    21    22    1
