@<TRIPOS>MOLECULE
*****
 28 32 0 0 0
SMALL
GASTEIGER

@<TRIPOS>ATOM
      1 C          59.5874   89.3303    6.9154 C.ar    1  UNL1        0.0653
      2 C          59.1472   87.9048    6.7605 C.ar    1  UNL1        0.0188
      3 C          59.6094   86.8666    7.7395 C.ar    1  UNL1        0.0158
      4 C          60.5119   87.2539    8.8733 C.ar    1  UNL1        0.0454
      5 C          60.9521   88.6794    9.0281 C.ar    1  UNL1       -0.0069
      6 C          60.4899   89.7176    8.0492 C.ar    1  UNL1        0.0145
      7 C          61.8426   89.2744   10.0783 C.3     1  UNL1        0.0330
      8 C          62.5128   88.5908   11.2331 C.3     1  UNL1        0.0406
      9 C          62.4581   87.1433   11.6228 C.ar    1  UNL1        0.0403
     10 S          63.1798   86.5796   12.8108 S.2     1  UNL1       -0.0735
     11 C          62.8873   85.1098   12.8763 C.ar    1  UNL1        0.0938
     12 N          61.9849   84.7652   11.7288 N.ar    1  UNL1       -0.2279
     13 C          61.7196   86.0220   10.9541 C.ar    1  UNL1        0.1343
     14 N          60.8534   86.0712    9.7304 N.pl3   1  UNL1       -0.2980
     15 H          60.4567   85.2140    9.4531 H       1  UNL1        0.1536
     16 C          59.5834   93.0503    3.1680 C.3     1  UNL1        0.0538
     17 C          59.1234   92.0785    4.2139 C.ar    1  UNL1        0.0786
     18 C          60.0013   91.1604    5.0115 C.ar    1  UNL1        0.0962
     19 N          59.1252   90.3686    5.9364 N.ar    1  UNL1       -0.2868
     20 C          57.7056   90.7974    5.7104 C.ar    1  UNL1        0.1825
     21 N          57.7045   91.8542    4.6459 N.ar    1  UNL1       -0.2280
     22 C          63.4062   84.1527   13.9081 C.3     1  UNL1        0.0788
     23 C          62.9822   82.7142   13.8773 C.ar    1  UNL1       -0.0157
     24 C          61.5908   82.3335   14.2886 C.ar    1  UNL1       -0.0039
     25 C          61.1668   80.8950   14.2578 C.ar    1  UNL1       -0.0003
     26 C          62.1340   79.8372   13.8158 C.ar    1  UNL1       -0.0000
     27 C          63.5254   80.2179   13.4046 C.ar    1  UNL1       -0.0003
     28 C          63.9495   81.6565   13.4353 C.ar    1  UNL1       -0.0039
@<TRIPOS>BOND
     1    16    17    1
     2    17    18   ar
     3    18    19   ar
     4    19     1    1
     5     1     2   ar
     6     2     3   ar
     7     3     4   ar
     8     4     5   ar
     9     5     6   ar
    10     5     7    1
    11     7     8    1
    12     8     9    1
    13     9    10   ar
    14    10    11   ar
    15    11    22    1
    16    22    23    1
    17    23    24   ar
    18    24    25   ar
    19    25    26   ar
    20    26    27   ar
    21    27    28   ar
    22    11    12   ar
    23    12    13   ar
    24    13    14    1
    25    19    20   ar
    26    20    21   ar
    27    21    17   ar
    28     6     1   ar
    29    13     9   ar
    30    14     4    1
    31    28    23   ar
    32    14    15    1
@<TRIPOS>MOLECULE
*****
 28 32 0 0 0
SMALL
GASTEIGER

@<TRIPOS>ATOM
      1 C          63.1996   82.5273   13.0251 C.ar    1  UNL1        0.0653
      2 C          63.9658   82.7430   14.2964 C.ar    1  UNL1        0.0188
      3 C          64.3178   84.1342   14.7331 C.ar    1  UNL1        0.0158
      4 C          63.9035   85.3096   13.8985 C.ar    1  UNL1        0.0454
      5 C          63.1372   85.0939   12.6272 C.ar    1  UNL1       -0.0069
      6 C          62.7852   83.7028   12.1905 C.ar    1  UNL1        0.0145
      7 C          62.6312   86.1180   11.6549 C.3     1  UNL1        0.0330
      8 C          62.7666   87.6107   11.7138 C.3     1  UNL1        0.0406
      9 C          63.4414   88.4480   12.7596 C.ar    1  UNL1        0.0403
     10 S          63.5086   89.9454   12.7026 S.2     1  UNL1       -0.0735
     11 C          64.2562   90.4223   13.9125 C.ar    1  UNL1        0.0938
     12 N          64.6510   89.2196   14.7172 N.ar    1  UNL1       -0.2279
     13 C          64.1475   87.9995   14.0047 C.ar    1  UNL1        0.1343
     14 N          64.3531   86.6027   14.5115 N.pl3   1  UNL1       -0.2980
     15 H          64.8487   86.5243   15.3585 H       1  UNL1        0.1536
     16 C          62.6656   78.1680   10.0938 C.3     1  UNL1        0.0538
     17 C          62.6021   79.1323   11.2409 C.ar    1  UNL1        0.0786
     18 C          63.1199   80.5401   11.2390 C.ar    1  UNL1        0.0962
     19 N          62.8476   81.1361   12.5884 N.ar    1  UNL1       -0.2868
     20 C          62.1614   80.0966   13.4242 C.ar    1  UNL1        0.1825
     21 N          62.0097   78.8582   12.5915 N.ar    1  UNL1       -0.2280
     22 C          64.5562   91.8510   14.2571 C.3     1  UNL1        0.0788
     23 C          65.9538   92.2574   14.6200 C.ar    1  UNL1       -0.0157
     24 C          66.2565   92.7477   16.0049 C.ar    1  UNL1       -0.0039
     25 C          67.6539   93.1541   16.3679 C.ar    1  UNL1       -0.0003
     26 C          68.7488   93.0702   15.3460 C.ar    1  UNL1       -0.0000
     27 C          68.4461   92.5799   13.9611 C.ar    1  UNL1       -0.0003
     28 C          67.0485   92.1734   13.5981 C.ar    1  UNL1       -0.0039
@<TRIPOS>BOND
     1    16    17    1
     2    17    18   ar
     3    18    19   ar
     4    19     1    1
     5     1     2   ar
     6     2     3   ar
     7     3     4   ar
     8     4     5   ar
     9     5     6   ar
    10     5     7    1
    11     7     8    1
    12     8     9    1
    13     9    10   ar
    14    10    11   ar
    15    11    22    1
    16    22    23    1
    17    23    24   ar
    18    24    25   ar
    19    25    26   ar
    20    26    27   ar
    21    27    28   ar
    22    11    12   ar
    23    12    13   ar
    24    13    14    1
    25    19    20   ar
    26    20    21   ar
    27    21    17   ar
    28     6     1   ar
    29    13     9   ar
    30    14     4    1
    31    28    23   ar
    32    14    15    1
@<TRIPOS>MOLECULE
*****
 28 32 0 0 0
SMALL
GASTEIGER

@<TRIPOS>ATOM
      1 C          62.9166   83.7466   13.8968 C.ar    1  UNL1        0.0653
      2 C          63.8483   84.1502   15.0008 C.ar    1  UNL1        0.0188
      3 C          64.3560   85.5596   15.0761 C.ar    1  UNL1        0.0158
      4 C          63.9319   86.5655   14.0474 C.ar    1  UNL1        0.0454
      5 C          63.0002   86.1620   12.9433 C.ar    1  UNL1       -0.0069
      6 C          62.4926   84.7525   12.8680 C.ar    1  UNL1        0.0145
      7 C          62.4570   87.0006   11.8246 C.3     1  UNL1        0.0330
      8 C          62.7114   88.4500   11.5336 C.3     1  UNL1        0.0406
      9 C          63.5718   89.4186   12.2895 C.ar    1  UNL1        0.0403
     10 S          63.7447   90.8547   11.8922 S.2     1  UNL1       -0.0735
     11 C          64.6701   91.5008   12.8803 C.ar    1  UNL1        0.0938
     12 N          65.0691   90.4640   13.8882 N.ar    1  UNL1       -0.2279
     13 C          64.3903   89.1772   13.5231 C.ar    1  UNL1        0.1343
     14 N          64.5506   87.9074   14.3054 N.pl3   1  UNL1       -0.2980
     15 H          65.1397   87.9620   15.0923 H       1  UNL1        0.1536
     16 C          59.7901   79.5083   14.2739 C.3     1  UNL1        0.0538
     17 C          60.9718   80.3890   13.9948 C.ar    1  UNL1        0.0786
     18 C          61.0494   81.8659   14.2452 C.ar    1  UNL1        0.0962
     19 N          62.4089   82.3371   13.8214 N.ar    1  UNL1       -0.2868
     20 C          63.1716   81.1515   13.3091 C.ar    1  UNL1        0.1825
     21 N          62.2834   79.9475   13.4162 N.ar    1  UNL1       -0.2280
     22 C          65.1178   92.9323   12.8634 C.3     1  UNL1        0.0788
     23 C          65.9701   93.4383   11.7374 C.ar    1  UNL1       -0.0157
     24 C          65.9582   94.8961   11.3845 C.ar    1  UNL1       -0.0039
     25 C          66.8104   95.4022   10.2587 C.ar    1  UNL1       -0.0003
     26 C          67.6744   94.4504    9.4856 C.ar    1  UNL1       -0.0000
     27 C          67.6863   92.9926    9.8385 C.ar    1  UNL1       -0.0003
     28 C          66.8340   92.4865   10.9645 C.ar    1  UNL1       -0.0039
@<TRIPOS>BOND
     1    16    17    1
     2    17    18   ar
     3    18    19   ar
     4    19     1    1
     5     1     2   ar
     6     2     3   ar
     7     3     4   ar
     8     4     5   ar
     9     5     6   ar
    10     5     7    1
    11     7     8    1
    12     8     9    1
    13     9    10   ar
    14    10    11   ar
    15    11    22    1
    16    22    23    1
    17    23    24   ar
    18    24    25   ar
    19    25    26   ar
    20    26    27   ar
    21    27    28   ar
    22    11    12   ar
    23    12    13   ar
    24    13    14    1
    25    19    20   ar
    26    20    21   ar
    27    21    17   ar
    28     6     1   ar
    29    13     9   ar
    30    14     4    1
    31    28    23   ar
    32    14    15    1
@<TRIPOS>MOLECULE
*****
 28 32 0 0 0
SMALL
GASTEIGER

@<TRIPOS>ATOM
      1 C          64.8268   91.9512   12.0985 C.ar    1  UNL1        0.0653
      2 C          63.9569   91.4297   10.9934 C.ar    1  UNL1        0.0188
      3 C          63.3789   90.0484   11.0822 C.ar    1  UNL1        0.0158
      4 C          63.6708   89.1886   12.2762 C.ar    1  UNL1        0.0454
      5 C          64.5406   89.7101   13.3813 C.ar    1  UNL1       -0.0069
      6 C          65.1186   91.0914   13.2925 C.ar    1  UNL1        0.0145
      7 C          64.9539   89.0237   14.6494 C.3     1  UNL1        0.0330
      8 C          64.5992   87.6461   15.1255 C.3     1  UNL1        0.0406
      9 C          63.7438   86.6149   14.4512 C.ar    1  UNL1        0.0403
     10 S          63.4633   85.2627   15.0368 S.2     1  UNL1       -0.0735
     11 C          62.5779   84.5185   14.0816 C.ar    1  UNL1        0.0938
     12 N          62.3111   85.4108   12.9058 N.ar    1  UNL1       -0.2279
     13 C          63.0317   86.7064   13.1342 C.ar    1  UNL1        0.1343
     14 N          62.9992   87.8519   12.1662 N.pl3   1  UNL1       -0.2980
     15 H          62.4667   87.7071   11.3509 H       1  UNL1        0.1536
     16 C          66.2261   96.7010   10.2650 C.3     1  UNL1        0.0538
     17 C          66.0480   95.5158   11.1668 C.ar    1  UNL1        0.0786
     18 C          65.3461   94.2377   10.8150 C.ar    1  UNL1        0.0962
     19 N          65.4048   93.3325   12.0097 N.ar    1  UNL1       -0.2868
     20 C          66.1431   94.0511   13.0999 C.ar    1  UNL1        0.1825
     21 N          66.5406   95.4004   12.5790 N.ar    1  UNL1       -0.2280
     22 C          62.0516   83.1265   14.2695 C.3     1  UNL1        0.0788
     23 C          62.3566   82.0659   13.2535 C.ar    1  UNL1       -0.0157
     24 C          62.1301   80.6210   13.5865 C.ar    1  UNL1       -0.0039
     25 C          62.4350   79.5605   12.5706 C.ar    1  UNL1       -0.0003
     26 C          62.9666   79.9447   11.2216 C.ar    1  UNL1       -0.0000
     27 C          63.1932   81.3896   10.8886 C.ar    1  UNL1       -0.0003
     28 C          62.8882   82.4503   11.9045 C.ar    1  UNL1       -0.0039
@<TRIPOS>BOND
     1    16    17    1
     2    17    18   ar
     3    18    19   ar
     4    19     1    1
     5     1     2   ar
     6     2     3   ar
     7     3     4   ar
     8     4     5   ar
     9     5     6   ar
    10     5     7    1
    11     7     8    1
    12     8     9    1
    13     9    10   ar
    14    10    11   ar
    15    11    22    1
    16    22    23    1
    17    23    24   ar
    18    24    25   ar
    19    25    26   ar
    20    26    27   ar
    21    27    28   ar
    22    11    12   ar
    23    12    13   ar
    24    13    14    1
    25    19    20   ar
    26    20    21   ar
    27    21    17   ar
    28     6     1   ar
    29    13     9   ar
    30    14     4    1
    31    28    23   ar
    32    14    15    1
@<TRIPOS>MOLECULE
*****
 28 32 0 0 0
SMALL
GASTEIGER

@<TRIPOS>ATOM
      1 C          62.6324   84.0777   12.8989 C.ar    1  UNL1        0.0653
      2 C          62.1464   84.6899   11.6187 C.ar    1  UNL1        0.0188
      3 C          62.3972   86.1421   11.3392 C.ar    1  UNL1        0.0158
      4 C          63.1340   86.9821   12.3400 C.ar    1  UNL1        0.0454
      5 C          63.6200   86.3699   13.6202 C.ar    1  UNL1       -0.0069
      6 C          63.3692   84.9177   13.8996 C.ar    1  UNL1        0.0145
      7 C          64.3688   87.0228   14.7440 C.3     1  UNL1        0.0330
      8 C          64.8165   88.4493   14.8651 C.3     1  UNL1        0.0406
      9 C          64.6261   89.5751   13.8924 C.ar    1  UNL1        0.0403
     10 S          65.1259   90.9687   14.1332 S.2     1  UNL1       -0.0735
     11 C          64.7495   91.8075   12.9479 C.ar    1  UNL1        0.0938
     12 N          64.0171   90.9322   11.9745 N.ar    1  UNL1       -0.2279
     13 C          63.9409   89.5526   12.5582 C.ar    1  UNL1        0.1343
     14 N          63.2768   88.3985   11.8674 N.pl3   1  UNL1       -0.2980
     15 H          62.8826   88.5969   10.9874 H       1  UNL1        0.1536
     16 C          62.5042   78.8207   12.4202 C.3     1  UNL1        0.0538
     17 C          62.3227   80.2090   12.9583 C.ar    1  UNL1        0.0786
     18 C          62.7633   81.4780   12.2908 C.ar    1  UNL1        0.0962
     19 N          62.3815   82.6254   13.1784 N.ar    1  UNL1       -0.2868
     20 C          61.7050   82.0656   14.3944 C.ar    1  UNL1        0.1825
     21 N          61.6686   80.5722   14.2585 N.ar    1  UNL1       -0.2280
     22 C          65.0524   93.2654   12.7677 C.3     1  UNL1        0.0788
     23 C          65.9493   93.7128   11.6515 C.ar    1  UNL1       -0.0157
     24 C          66.7392   92.7026   10.8734 C.ar    1  UNL1       -0.0039
     25 C          67.6360   93.1498    9.7574 C.ar    1  UNL1       -0.0003
     26 C          67.7429   94.6073    9.4193 C.ar    1  UNL1       -0.0000
     27 C          66.9530   95.6175   10.1975 C.ar    1  UNL1       -0.0003
     28 C          66.0561   95.1703   11.3136 C.ar    1  UNL1       -0.0039
@<TRIPOS>BOND
     1    16    17    1
     2    17    18   ar
     3    18    19   ar
     4    19     1    1
     5     1     2   ar
     6     2     3   ar
     7     3     4   ar
     8     4     5   ar
     9     5     6   ar
    10     5     7    1
    11     7     8    1
    12     8     9    1
    13     9    10   ar
    14    10    11   ar
    15    11    22    1
    16    22    23    1
    17    23    24   ar
    18    24    25   ar
    19    25    26   ar
    20    26    27   ar
    21    27    28   ar
    22    11    12   ar
    23    12    13   ar
    24    13    14    1
    25    19    20   ar
    26    20    21   ar
    27    21    17   ar
    28     6     1   ar
    29    13     9   ar
    30    14     4    1
    31    28    23   ar
    32    14    15    1
@<TRIPOS>MOLECULE
*****
 28 32 0 0 0
SMALL
GASTEIGER

@<TRIPOS>ATOM
      1 C          59.5433   90.0256    6.2358 C.ar    1  UNL1        0.0653
      2 C          58.2669   90.7010    5.8303 C.ar    1  UNL1        0.0188
      3 C          58.2597   91.6604    4.6772 C.ar    1  UNL1        0.0158
      4 C          59.5288   91.9442    3.9297 C.ar    1  UNL1        0.0454
      5 C          60.8051   91.2687    4.3352 C.ar    1  UNL1       -0.0069
      6 C          60.8124   90.3094    5.4883 C.ar    1  UNL1        0.0145
      7 C          62.1705   91.4087    3.7302 C.3     1  UNL1        0.0330
      8 C          62.5967   92.2588    2.5701 C.3     1  UNL1        0.0406
      9 C          61.7628   93.1788    1.7286 C.ar    1  UNL1        0.0403
     10 S          62.3133   93.9807    0.5867 S.2     1  UNL1       -0.0735
     11 C          61.1875   94.7735   -0.0082 C.ar    1  UNL1        0.0938
     12 N          59.9412   94.4616    0.7659 N.ar    1  UNL1       -0.2279
     13 C          60.2967   93.4760    1.8393 C.ar    1  UNL1        0.1343
     14 N          59.3025   92.9265    2.8189 N.pl3   1  UNL1       -0.2980
     15 H          58.3793   93.2539    2.7197 H       1  UNL1        0.1536
     16 C          60.3324   87.9244   11.0153 C.3     1  UNL1        0.0538
     17 C          59.9134   88.1004    9.5858 C.ar    1  UNL1        0.0786
     18 C          60.1235   89.3283    8.7502 C.ar    1  UNL1        0.0962
     19 N          59.5507   89.0662    7.3889 N.ar    1  UNL1       -0.2868
     20 C          58.9865   87.6764    7.3832 C.ar    1  UNL1        0.1825
     21 N          59.2106   87.0795    8.7409 N.ar    1  UNL1       -0.2280
     22 C          61.2901   95.7133   -1.1728 C.3     1  UNL1        0.0788
     23 C          62.2245   95.4052   -2.3051 C.ar    1  UNL1       -0.0157
     24 C          61.8558   94.3633   -3.3194 C.ar    1  UNL1       -0.0039
     25 C          62.7901   94.0552   -4.4516 C.ar    1  UNL1       -0.0003
     26 C          64.0931   94.7889   -4.5697 C.ar    1  UNL1       -0.0000
     27 C          64.4618   95.8307   -3.5555 C.ar    1  UNL1       -0.0003
     28 C          63.5274   96.1389   -2.4231 C.ar    1  UNL1       -0.0039
@<TRIPOS>BOND
     1    16    17    1
     2    17    18   ar
     3    18    19   ar
     4    19     1    1
     5     1     2   ar
     6     2     3   ar
     7     3     4   ar
     8     4     5   ar
     9     5     6   ar
    10     5     7    1
    11     7     8    1
    12     8     9    1
    13     9    10   ar
    14    10    11   ar
    15    11    22    1
    16    22    23    1
    17    23    24   ar
    18    24    25   ar
    19    25    26   ar
    20    26    27   ar
    21    27    28   ar
    22    11    12   ar
    23    12    13   ar
    24    13    14    1
    25    19    20   ar
    26    20    21   ar
    27    21    17   ar
    28     6     1   ar
    29    13     9   ar
    30    14     4    1
    31    28    23   ar
    32    14    15    1
@<TRIPOS>MOLECULE
*****
 28 32 0 0 0
SMALL
GASTEIGER

@<TRIPOS>ATOM
      1 C          62.0744   94.9492   -0.5271 C.ar    1  UNL1        0.0653
      2 C          60.6100   95.2398   -0.3818 C.ar    1  UNL1        0.0188
      3 C          59.8148   94.5648    0.6962 C.ar    1  UNL1        0.0158
      4 C          60.4841   93.5993    1.6289 C.ar    1  UNL1        0.0454
      5 C          61.9484   93.3088    1.4836 C.ar    1  UNL1       -0.0069
      6 C          62.7436   93.9837    0.4056 C.ar    1  UNL1        0.0145
      7 C          62.8046   92.3872    2.3006 C.3     1  UNL1        0.0330
      8 C          62.4078   91.5284    3.4648 C.3     1  UNL1        0.0406
      9 C          61.0569   91.3793    4.0994 C.ar    1  UNL1        0.0403
     10 S          60.7882   90.4798    5.2693 S.2     1  UNL1       -0.0735
     11 C          59.3343   90.5966    5.6196 C.ar    1  UNL1        0.0938
     12 N          58.7045   91.5683    4.6661 N.ar    1  UNL1       -0.2279
     13 C          59.7691   92.0520    3.7267 C.ar    1  UNL1        0.1343
     14 N          59.5141   93.0400    2.6271 N.pl3   1  UNL1       -0.2980
     15 H          58.5877   93.3643    2.5505 H       1  UNL1        0.1536
     16 C          66.1164   96.8548   -3.3400 C.3     1  UNL1        0.0538
     17 C          64.7276   96.5000   -2.8981 C.ar    1  UNL1        0.0786
     18 C          64.3631   95.7576   -1.6467 C.ar    1  UNL1        0.0962
     19 N          62.8696   95.6241   -1.6051 N.ar    1  UNL1       -0.2868
     20 C          62.3110   96.2841   -2.8308 C.ar    1  UNL1        0.1825
     21 N          63.4592   96.8254   -3.6299 N.ar    1  UNL1       -0.2280
     22 C          58.6335   89.8693    6.7285 C.3     1  UNL1        0.0788
     23 C          59.3792   88.8637    7.5548 C.ar    1  UNL1       -0.0157
     24 C          60.1652   89.3112    8.7515 C.ar    1  UNL1       -0.0039
     25 C          60.9109   88.3057    9.5778 C.ar    1  UNL1       -0.0003
     26 C          60.8707   86.8527    9.2075 C.ar    1  UNL1       -0.0000
     27 C          60.0847   86.4052    8.0108 C.ar    1  UNL1       -0.0003
     28 C          59.3389   87.4108    7.1845 C.ar    1  UNL1       -0.0039
@<TRIPOS>BOND
     1    16    17    1
     2    17    18   ar
     3    18    19   ar
     4    19     1    1
     5     1     2   ar
     6     2     3   ar
     7     3     4   ar
     8     4     5   ar
     9     5     6   ar
    10     5     7    1
    11     7     8    1
    12     8     9    1
    13     9    10   ar
    14    10    11   ar
    15    11    22    1
    16    22    23    1
    17    23    24   ar
    18    24    25   ar
    19    25    26   ar
    20    26    27   ar
    21    27    28   ar
    22    11    12   ar
    23    12    13   ar
    24    13    14    1
    25    19    20   ar
    26    20    21   ar
    27    21    17   ar
    28     6     1   ar
    29    13     9   ar
    30    14     4    1
    31    28    23   ar
    32    14    15    1
@<TRIPOS>MOLECULE
*****
 28 32 0 0 0
SMALL
GASTEIGER

@<TRIPOS>ATOM
      1 C          59.5340   89.9874    6.2752 C.ar    1  UNL1        0.0653
      2 C          58.2374   90.6340    5.8869 C.ar    1  UNL1        0.0188
      3 C          58.1967   91.6073    4.7464 C.ar    1  UNL1        0.0158
      4 C          59.4526   91.9342    3.9941 C.ar    1  UNL1        0.0454
      5 C          60.7492   91.2876    4.3823 C.ar    1  UNL1       -0.0069
      6 C          60.7899   90.3143    5.5228 C.ar    1  UNL1        0.0145
      7 C          62.1061   91.4714    3.7700 C.3     1  UNL1        0.0330
      8 C          62.5015   92.3472    2.6181 C.3     1  UNL1        0.0406
      9 C          61.6377   93.2554    1.7942 C.ar    1  UNL1        0.0403
     10 S          62.1588   94.0861    0.6591 S.2     1  UNL1       -0.0735
     11 C          61.0082   94.8563    0.0820 C.ar    1  UNL1        0.0938
     12 N          59.7761   94.5016    0.8603 N.ar    1  UNL1       -0.2279
     13 C          60.1651   93.5122    1.9185 C.ar    1  UNL1        0.1343
     14 N          59.1926   92.9242    2.8976 N.pl3   1  UNL1       -0.2980
     15 H          58.2605   93.2283    2.8088 H       1  UNL1        0.1536
     16 C          60.3487   87.8695   11.0430 C.3     1  UNL1        0.0538
     17 C          59.9493   88.0406    9.6073 C.ar    1  UNL1        0.0786
     18 C          60.1031   89.2903    8.7922 C.ar    1  UNL1        0.0962
     19 N          59.5748   89.0140    7.4157 N.ar    1  UNL1       -0.2868
     20 C          59.0945   87.5935    7.3801 C.ar    1  UNL1        0.1825
     21 N          59.3260   86.9918    8.7345 N.ar    1  UNL1       -0.2280
     22 C          61.0778   95.8131   -1.0711 C.3     1  UNL1        0.0788
     23 C          60.2130   95.5977   -2.2777 C.ar    1  UNL1       -0.0157
     24 C          59.4862   96.7551   -2.8958 C.ar    1  UNL1       -0.0039
     25 C          58.6215   96.5397   -4.1024 C.ar    1  UNL1       -0.0003
     26 C          58.4836   95.1669   -4.6909 C.ar    1  UNL1       -0.0000
     27 C          59.2104   94.0095   -4.0727 C.ar    1  UNL1       -0.0003
     28 C          60.0752   94.2248   -2.8661 C.ar    1  UNL1       -0.0039
@<TRIPOS>BOND
     1    16    17    1
     2    17    18   ar
     3    18    19   ar
     4    19     1    1
     5     1     2   ar
     6     2     3   ar
     7     3     4   ar
     8     4     5   ar
     9     5     6   ar
    10     5     7    1
    11     7     8    1
    12     8     9    1
    13     9    10   ar
    14    10    11   ar
    15    11    22    1
    16    22    23    1
    17    23    24   ar
    18    24    25   ar
    19    25    26   ar
    20    26    27   ar
    21    27    28   ar
    22    11    12   ar
    23    12    13   ar
    24    13    14    1
    25    19    20   ar
    26    20    21   ar
    27    21    17   ar
    28     6     1   ar
    29    13     9   ar
    30    14     4    1
    31    28    23   ar
    32    14    15    1
@<TRIPOS>MOLECULE
*****
 28 32 0 0 0
SMALL
GASTEIGER

@<TRIPOS>ATOM
      1 C          62.6816   85.4239   12.1909 C.ar    1  UNL1        0.0653
      2 C          63.0209   86.8481   12.5173 C.ar    1  UNL1        0.0188
      3 C          62.5318   87.9570   11.6336 C.ar    1  UNL1        0.0158
      4 C          61.7034   87.6418   10.4235 C.ar    1  UNL1        0.0454
      5 C          61.3641   86.2177   10.0971 C.ar    1  UNL1       -0.0069
      6 C          61.8532   85.1087   10.9808 C.ar    1  UNL1        0.0145
      7 C          60.5578   85.6880    8.9485 C.3     1  UNL1        0.0330
      8 C          59.8917   86.4517    7.8426 C.3     1  UNL1        0.0406
      9 C          59.8674   87.9337    7.6122 C.ar    1  UNL1        0.0403
     10 S          59.1591   88.5790    6.4581 S.2     1  UNL1       -0.0735
     11 C          59.3572   90.0622    6.5634 C.ar    1  UNL1        0.0938
     12 N          60.1878   90.3335    7.7826 N.ar    1  UNL1       -0.2279
     13 C          60.5031   89.0180    8.4307 C.ar    1  UNL1        0.1343
     14 N          61.3202   88.8881    9.6819 N.pl3   1  UNL1       -0.2980
     15 H          61.6484   89.7324   10.0674 H       1  UNL1        0.1536
     16 C          63.6131   80.6165   14.1664 C.3     1  UNL1        0.0538
     17 C          63.5989   82.1051   13.9826 C.ar    1  UNL1        0.0786
     18 C          62.9332   82.8490   12.8630 C.ar    1  UNL1        0.0962
     19 N          63.1708   84.3149   13.0746 N.ar    1  UNL1       -0.2868
     20 C          63.9832   84.4770   14.3250 C.ar    1  UNL1        0.1825
     21 N          64.2479   83.1114   14.8862 N.ar    1  UNL1       -0.2280
     22 C          58.8190   91.0930    5.6159 C.3     1  UNL1        0.0788
     23 C          59.7021   91.6605    4.5444 C.ar    1  UNL1       -0.0157
     24 C          59.1297   92.5881    3.5139 C.ar    1  UNL1       -0.0039
     25 C          60.0127   93.1556    2.4425 C.ar    1  UNL1       -0.0003
     26 C          61.4683   92.7956    2.4014 C.ar    1  UNL1       -0.0000
     27 C          62.0408   91.8680    3.4318 C.ar    1  UNL1       -0.0003
     28 C          61.1577   91.3004    4.5034 C.ar    1  UNL1       -0.0039
@<TRIPOS>BOND
     1    16    17    1
     2    17    18   ar
     3    18    19   ar
     4    19     1    1
     5     1     2   ar
     6     2     3   ar
     7     3     4   ar
     8     4     5   ar
     9     5     6   ar
    10     5     7    1
    11     7     8    1
    12     8     9    1
    13     9    10   ar
    14    10    11   ar
    15    11    22    1
    16    22    23    1
    17    23    24   ar
    18    24    25   ar
    19    25    26   ar
    20    26    27   ar
    21    27    28   ar
    22    11    12   ar
    23    12    13   ar
    24    13    14    1
    25    19    20   ar
    26    20    21   ar
    27    21    17   ar
    28     6     1   ar
    29    13     9   ar
    30    14     4    1
    31    28    23   ar
    32    14    15    1
