@<TRIPOS>MOLECULE
*****
 33 35 0 0 0
SMALL
GASTEIGER

@<TRIPOS>ATOM
      1 N          63.8553   87.7810   14.4461 N.3     1  UNL1       -0.1512
      2 C          64.3886   88.7410   13.4245 C.3     1  UNL1        0.1224
      3 C          64.4343   90.1042   14.0487 C.3     1  UNL1        0.1801
      4 C          63.9292   89.9867   15.4561 C.3     1  UNL1        0.1408
      5 O          63.4792   90.1776   16.8742 O.3     1  UNL1       -0.3822
      6 C          63.5713   88.5509   15.7018 C.3     1  UNL1        0.1257
      7 H          63.5727   91.1112   17.1202 H       1  UNL1        0.2104
      8 C          64.1929   91.4624   15.5069 C.3     1  UNL1        0.0956
      9 N          63.8429   92.2449   16.7378 N.3     1  UNL1       -0.3191
     10 H          62.8306   92.2481   16.8623 H       1  UNL1        0.1189
     11 H          64.1762   93.2037   16.6374 H       1  UNL1        0.1189
     12 S          63.6431   86.3095   14.2471 S.O2    1  UNL1        0.0642
     13 O          64.1948   86.0447   15.6166 O.2     1  UNL1       -0.1527
     14 O          63.0915   86.5742   12.8776 O.2     1  UNL1       -0.1527
     15 C          63.0067   81.8949   13.6501 C.ar    1  UNL1        0.0694
     16 C          64.0237   82.6246   12.8236 C.ar    1  UNL1        0.0117
     17 C          64.2359   84.0961   13.0226 C.ar    1  UNL1        0.0215
     18 C          63.4310   84.8379   14.0481 C.ar    1  UNL1        0.1327
     19 C          62.4140   84.1083   14.8746 C.ar    1  UNL1        0.0769
     20 CL         61.6090   84.8501   15.9002 Cl      1  UNL1       -0.0808
     21 C          62.2019   82.6367   14.6756 C.ar    1  UNL1        0.0230
     22 N          62.5825   78.9518   13.2520 N.1     1  UNL1       -0.1908
     23 C          62.7946   80.4234   13.4511 C.1     1  UNL1        0.1004
     24 S          64.9028   91.3638   13.3823 S.O2    1  UNL1        0.0271
     25 O          66.2517   91.1979   14.0173 O.2     1  UNL1       -0.1671
     26 O          63.5540   91.5296   12.7474 O.2     1  UNL1       -0.1671
     27 C          65.3714   92.6233   12.7160 C.ar    1  UNL1        0.1863
     28 C          65.2076   92.7938   11.2348 C.ar    1  UNL1        0.0388
     29 C          65.6761   94.0533   10.5683 C.ar    1  UNL1        0.0159
     30 C          66.3084   95.1424   11.3832 C.ar    1  UNL1        0.0769
     31 CL         66.7769   96.4020   10.7169 Cl      1  UNL1       -0.0806
     32 C          66.4721   94.9719   12.8646 C.ar    1  UNL1        0.1117
     33 N          66.0036   93.7124   13.5309 N.ar    1  UNL1       -0.2248
@<TRIPOS>BOND
     1    22    23    3
     2    23    15    1
     3    15    16   ar
     4    16    17   ar
     5    17    18   ar
     6    18    12    1
     7    12    13    2
     8    12    14    2
     9    12     1    1
    10     1     2    1
    11     2     3    1
    12     3    24    1
    13    24    25    2
    14    24    26    2
    15    24    27    1
    16    27    28   ar
    17    28    29   ar
    18    29    30   ar
    19    30    31    1
    20    30    32   ar
    21    32    33   ar
    22     3     4    1
    23     4     5    1
    24     4     8    1
    25     8     9    1
    26     4     6    1
    27    18    19   ar
    28    19    20    1
    29    19    21   ar
    30    21    15   ar
    31     6     1    1
    32    33    27   ar
    33     5     7    1
    34     9    10    1
    35     9    11    1
@<TRIPOS>MOLECULE
*****
 33 35 0 0 0
SMALL
GASTEIGER

@<TRIPOS>ATOM
      1 N          64.2986   89.1373   14.3279 N.3     1  UNL1       -0.1512
      2 C          64.2351   87.7994   13.6527 C.3     1  UNL1        0.1224
      3 C          63.7389   86.7982   14.6534 C.3     1  UNL1        0.1801
      4 C          63.4957   87.5173   15.9471 C.3     1  UNL1        0.1408
      5 O          63.1658   87.9534   17.3439 O.3     1  UNL1       -0.3822
      6 C          63.8416   88.9630   15.7459 C.3     1  UNL1        0.1257
      7 H          62.8615   87.1891   17.8578 H       1  UNL1        0.2104
      8 C          63.0809   86.1629   16.4402 C.3     1  UNL1        0.0956
      9 N          61.7313   85.9739   17.0671 N.3     1  UNL1       -0.3191
     10 H          61.6872   86.4952   17.9427 H       1  UNL1        0.1189
     11 H          61.5788   84.9827   17.2535 H       1  UNL1        0.1189
     12 S          64.7413   90.4237   13.6961 S.O2    1  UNL1        0.0642
     13 O          63.4573   90.4860   12.9232 O.2     1  UNL1       -0.1527
     14 O          66.0254   90.3614   14.4689 O.2     1  UNL1       -0.1527
     15 C          66.0695   94.2828   11.8005 C.ar    1  UNL1        0.0694
     16 C          65.3659   93.2456   10.9764 C.ar    1  UNL1        0.0117
     17 C          64.9232   91.9593   11.6083 C.ar    1  UNL1        0.0215
     18 C          65.1841   91.7101   13.0642 C.ar    1  UNL1        0.1327
     19 C          65.8876   92.7473   13.8883 C.ar    1  UNL1        0.0769
     20 CL         66.1485   92.4981   15.3443 Cl      1  UNL1       -0.0808
     21 C          66.3303   94.0336   13.2565 C.ar    1  UNL1        0.0230
     22 N          66.9549   96.8556   10.5368 N.1     1  UNL1       -0.1908
     23 C          66.5122   95.5692   11.1687 C.1     1  UNL1        0.1004
     24 S          63.5237   85.3348   14.4041 S.O2    1  UNL1        0.0271
     25 O          64.9185   85.0492   14.8764 O.2     1  UNL1       -0.1671
     26 O          62.1289   85.6203   13.9319 O.2     1  UNL1       -0.1671
     27 C          63.3085   83.8714   14.1548 C.ar    1  UNL1        0.1863
     28 C          64.2675   83.1091   13.2893 C.ar    1  UNL1        0.0388
     29 C          64.0524   81.6457   13.0400 C.ar    1  UNL1        0.0159
     30 C          62.8782   80.9446   13.6562 C.ar    1  UNL1        0.0769
     31 CL         62.6630   79.4812   13.4069 Cl      1  UNL1       -0.0806
     32 C          61.9192   81.7070   14.5218 C.ar    1  UNL1        0.1117
     33 N          62.1344   83.1704   14.7711 N.ar    1  UNL1       -0.2248
@<TRIPOS>BOND
     1    22    23    3
     2    23    15    1
     3    15    16   ar
     4    16    17   ar
     5    17    18   ar
     6    18    12    1
     7    12    13    2
     8    12    14    2
     9    12     1    1
    10     1     2    1
    11     2     3    1
    12     3    24    1
    13    24    25    2
    14    24    26    2
    15    24    27    1
    16    27    28   ar
    17    28    29   ar
    18    29    30   ar
    19    30    31    1
    20    30    32   ar
    21    32    33   ar
    22     3     4    1
    23     4     5    1
    24     4     8    1
    25     8     9    1
    26     4     6    1
    27    18    19   ar
    28    19    20    1
    29    19    21   ar
    30    21    15   ar
    31     6     1    1
    32    33    27   ar
    33     5     7    1
    34     9    10    1
    35     9    11    1
@<TRIPOS>MOLECULE
*****
 33 35 0 0 0
SMALL
GASTEIGER

@<TRIPOS>ATOM
      1 N          63.4020   90.1550   12.6816 N.3     1  UNL1       -0.1512
      2 C          63.5845   89.2157   11.5264 C.3     1  UNL1        0.1224
      3 C          62.2383   88.6654   11.1592 C.3     1  UNL1        0.1801
      4 C          61.2237   89.2646   12.0874 C.3     1  UNL1        0.1408
      5 O          60.0056   89.6900   12.8523 O.3     1  UNL1       -0.3822
      6 C          61.9429   90.1852   13.0282 C.3     1  UNL1        0.1257
      7 H          59.2240   89.2445   12.4895 H       1  UNL1        0.2104
      8 C          60.2499   88.4329   11.3065 C.3     1  UNL1        0.0956
      9 N          58.8224   88.3302   11.7554 N.3     1  UNL1       -0.3191
     10 H          58.7819   87.8442   12.6513 H       1  UNL1        0.1189
     11 H          58.2845   87.8104   11.0620 H       1  UNL1        0.1189
     12 S          64.4878   90.9283   13.3693 S.O2    1  UNL1        0.0642
     13 O          64.8346   89.7172   14.1836 O.2     1  UNL1       -0.1527
     14 O          64.1411   92.1394   12.5549 O.2     1  UNL1       -0.1527
     15 C          67.7454   93.2482   15.4323 C.ar    1  UNL1        0.0694
     16 C          67.8845   92.8867   13.9832 C.ar    1  UNL1        0.0117
     17 C          66.7987   92.1134   13.2956 C.ar    1  UNL1        0.0215
     18 C          65.5737   91.7016   14.0569 C.ar    1  UNL1        0.1327
     19 C          65.4345   92.0631   15.5060 C.ar    1  UNL1        0.0769
     20 CL         64.2095   91.6513   16.2675 Cl      1  UNL1       -0.0808
     21 C          66.5204   92.8364   16.1937 C.ar    1  UNL1        0.0230
     22 N          69.9171   94.7948   16.8077 N.1     1  UNL1       -0.1908
     23 C          68.8312   94.0215   16.1200 C.1     1  UNL1        0.1004
     24 S          61.9562   87.6875   10.0573 S.O2    1  UNL1        0.0271
     25 O          62.4402   86.5663   10.9283 O.2     1  UNL1       -0.1671
     26 O          61.4723   88.8087    9.1862 O.2     1  UNL1       -0.1671
     27 C          61.6741   86.7097    8.9553 C.ar    1  UNL1        0.1863
     28 C          62.7650   85.8114    8.4523 C.ar    1  UNL1        0.0388
     29 C          62.4831   84.8335    7.3504 C.ar    1  UNL1        0.0159
     30 C          61.1101   84.7540    6.7514 C.ar    1  UNL1        0.0769
     31 CL         60.8280   83.7762    5.6495 Cl      1  UNL1       -0.0806
     32 C          60.0192   85.6524    7.2545 C.ar    1  UNL1        0.1117
     33 N          60.3013   86.6302    8.3564 N.ar    1  UNL1       -0.2248
@<TRIPOS>BOND
     1    22    23    3
     2    23    15    1
     3    15    16   ar
     4    16    17   ar
     5    17    18   ar
     6    18    12    1
     7    12    13    2
     8    12    14    2
     9    12     1    1
    10     1     2    1
    11     2     3    1
    12     3    24    1
    13    24    25    2
    14    24    26    2
    15    24    27    1
    16    27    28   ar
    17    28    29   ar
    18    29    30   ar
    19    30    31    1
    20    30    32   ar
    21    32    33   ar
    22     3     4    1
    23     4     5    1
    24     4     8    1
    25     8     9    1
    26     4     6    1
    27    18    19   ar
    28    19    20    1
    29    19    21   ar
    30    21    15   ar
    31     6     1    1
    32    33    27   ar
    33     5     7    1
    34     9    10    1
    35     9    11    1
@<TRIPOS>MOLECULE
*****
 33 35 0 0 0
SMALL
GASTEIGER

@<TRIPOS>ATOM
      1 N          62.2946   87.0329   11.9532 N.3     1  UNL1       -0.1512
      2 C          63.4110   88.0223   12.1110 C.3     1  UNL1        0.1224
      3 C          62.8979   89.3699   11.6978 C.3     1  UNL1        0.1801
      4 C          61.4645   89.2134   11.2846 C.3     1  UNL1        0.1408
      5 O          60.0471   89.3655   10.8180 O.3     1  UNL1       -0.3822
      6 C          61.0916   87.7691   11.4425 C.3     1  UNL1        0.1257
      7 H          59.8793   90.2934   10.5908 H       1  UNL1        0.2104
      8 C          61.5411   90.6894   11.0292 C.3     1  UNL1        0.0956
      9 N          60.2909   91.5183   11.0397 N.3     1  UNL1       -0.3191
     10 H          59.6927   91.2412   10.2614 H       1  UNL1        0.1189
     11 H          60.5357   92.5040   10.9463 H       1  UNL1        0.1189
     12 S          62.3683   85.5651   12.2535 S.O2    1  UNL1        0.0642
     13 O          63.3364   85.8412   13.3654 O.2     1  UNL1       -0.1527
     14 O          61.4002   85.2891   11.1415 O.2     1  UNL1       -0.1527
     15 C          62.5894   81.1617   13.1541 C.ar    1  UNL1        0.0694
     16 C          61.9825   82.1020   14.1529 C.ar    1  UNL1        0.0117
     17 C          61.9088   83.5698   13.8526 C.ar    1  UNL1        0.0215
     18 C          62.4420   84.0973   12.5537 C.ar    1  UNL1        0.1327
     19 C          63.0489   83.1570   11.5550 C.ar    1  UNL1        0.0769
     20 CL         63.5822   83.6846   10.2559 Cl      1  UNL1       -0.0808
     21 C          63.1226   81.6892   11.8552 C.ar    1  UNL1        0.0230
     22 N          62.7368   78.2261   13.7546 N.1     1  UNL1       -0.1908
     23 C          62.6631   79.6939   13.4544 C.1     1  UNL1        0.1004
     24 S          63.6809   90.6493   11.6978 S.O2    1  UNL1        0.0271
     25 O          63.7285   90.6202   10.1989 O.2     1  UNL1       -0.1671
     26 O          63.6333   90.6784   13.1968 O.2     1  UNL1       -0.1671
     27 C          64.4639   91.9288   11.6978 C.ar    1  UNL1        0.1863
     28 C          64.6176   92.7139   10.4290 C.ar    1  UNL1        0.0388
     29 C          65.4005   93.9934   10.4289 C.ar    1  UNL1        0.0159
     30 C          66.0298   94.4877   11.6977 C.ar    1  UNL1        0.0769
     31 CL         66.8128   95.7671   11.6977 Cl      1  UNL1       -0.0806
     32 C          65.8760   93.7024   12.9665 C.ar    1  UNL1        0.1117
     33 N          65.0931   92.4230   12.9665 N.ar    1  UNL1       -0.2248
@<TRIPOS>BOND
     1    22    23    3
     2    23    15    1
     3    15    16   ar
     4    16    17   ar
     5    17    18   ar
     6    18    12    1
     7    12    13    2
     8    12    14    2
     9    12     1    1
    10     1     2    1
    11     2     3    1
    12     3    24    1
    13    24    25    2
    14    24    26    2
    15    24    27    1
    16    27    28   ar
    17    28    29   ar
    18    29    30   ar
    19    30    31    1
    20    30    32   ar
    21    32    33   ar
    22     3     4    1
    23     4     5    1
    24     4     8    1
    25     8     9    1
    26     4     6    1
    27    18    19   ar
    28    19    20    1
    29    19    21   ar
    30    21    15   ar
    31     6     1    1
    32    33    27   ar
    33     5     7    1
    34     9    10    1
    35     9    11    1
@<TRIPOS>MOLECULE
*****
 33 35 0 0 0
SMALL
GASTEIGER

@<TRIPOS>ATOM
      1 N          63.9559   88.5580   13.2417 N.3     1  UNL1       -0.1512
      2 C          64.0930   87.1089   13.6040 C.3     1  UNL1        0.1224
      3 C          63.0683   86.3377   12.8261 C.3     1  UNL1        0.1801
      4 C          62.2979   87.3101   11.9830 C.3     1  UNL1        0.1408
      5 O          61.3724   88.0270   11.0453 O.3     1  UNL1       -0.3822
      6 C          62.8465   88.6824   12.2399 C.3     1  UNL1        0.1257
      7 H          60.7773   87.3863   10.6256 H       1  UNL1        0.2104
      8 C          61.5559   86.0878   11.5302 C.3     1  UNL1        0.0956
      9 N          61.1670   85.9373   10.0893 N.3     1  UNL1       -0.3191
     10 H          60.4822   86.6528    9.8455 H       1  UNL1        0.1189
     11 H          60.7608   85.0134    9.9415 H       1  UNL1        0.1189
     12 S          64.7831   89.6850   13.7857 S.O2    1  UNL1        0.0642
     13 O          64.2897   90.5779   12.6860 O.2     1  UNL1       -0.1527
     14 O          65.2764   88.7920   14.8854 O.2     1  UNL1       -0.1527
     15 C          67.2645   93.0657   15.4176 C.ar    1  UNL1        0.0694
     16 C          67.7237   92.3174   14.2014 C.ar    1  UNL1        0.0117
     17 C          66.8965   91.1905   13.6574 C.ar    1  UNL1        0.0215
     18 C          65.6102   90.8119   14.3297 C.ar    1  UNL1        0.1327
     19 C          65.1510   91.5601   15.5459 C.ar    1  UNL1        0.0769
     20 CL         63.8647   91.1815   16.2182 Cl      1  UNL1       -0.0808
     21 C          65.9782   92.6870   16.0899 C.ar    1  UNL1        0.0230
     22 N          68.9188   95.3195   16.5056 N.1     1  UNL1       -0.1908
     23 C          68.0916   94.1926   15.9616 C.1     1  UNL1        0.1004
     24 S          62.8520   84.8544   12.8816 S.O2    1  UNL1        0.0271
     25 O          62.2137   84.9980   14.2315 O.2     1  UNL1       -0.1671
     26 O          63.4902   84.7108   11.5318 O.2     1  UNL1       -0.1671
     27 C          62.6357   83.3711   12.9371 C.ar    1  UNL1        0.1863
     28 C          62.9557   82.5213   11.7432 C.ar    1  UNL1        0.0388
     29 C          62.7394   81.0380   11.7986 C.ar    1  UNL1        0.0159
     30 C          62.2031   80.4045   13.0480 C.ar    1  UNL1        0.0769
     31 CL         61.9868   78.9212   13.1035 Cl      1  UNL1       -0.0806
     32 C          61.8831   81.2544   14.2420 C.ar    1  UNL1        0.1117
     33 N          62.0994   82.7376   14.1865 N.ar    1  UNL1       -0.2248
@<TRIPOS>BOND
     1    22    23    3
     2    23    15    1
     3    15    16   ar
     4    16    17   ar
     5    17    18   ar
     6    18    12    1
     7    12    13    2
     8    12    14    2
     9    12     1    1
    10     1     2    1
    11     2     3    1
    12     3    24    1
    13    24    25    2
    14    24    26    2
    15    24    27    1
    16    27    28   ar
    17    28    29   ar
    18    29    30   ar
    19    30    31    1
    20    30    32   ar
    21    32    33   ar
    22     3     4    1
    23     4     5    1
    24     4     8    1
    25     8     9    1
    26     4     6    1
    27    18    19   ar
    28    19    20    1
    29    19    21   ar
    30    21    15   ar
    31     6     1    1
    32    33    27   ar
    33     5     7    1
    34     9    10    1
    35     9    11    1
