@<TRIPOS>MOLECULE
*****
 44 48 0 0 0
SMALL
GASTEIGER

@<TRIPOS>ATOM
      1 C          60.6870   89.3681   10.8922 C.3     1  UNL1        0.1443
      2 O          59.9692   88.9978   12.1562 O.3     1  UNL1       -0.3813
      3 H          60.2866   89.5557   12.8835 H       1  UNL1        0.2105
      4 C          60.3753   88.6474    9.6141 C.3     1  UNL1        0.1041
      5 C          59.3837   88.9694    7.2344 C.2     1  UNL1        0.2527
      6 O          58.4964   87.7780    7.4429 O.2     1  UNL1       -0.2724
      7 N          60.3231   89.4040    8.3200 N.am    1  UNL1       -0.3012
      8 H          60.9054   90.1860    8.1831 H       1  UNL1        0.1495
      9 C          59.3315   89.7260    5.9403 C.3     1  UNL1        0.2269
     10 C          58.6155   91.9233    4.7532 C.3     1  UNL1        0.1748
     11 O          58.3531   90.8499    5.7675 O.3     1  UNL1       -0.3418
     12 C          60.1158   87.1702    9.6302 C.3     1  UNL1        0.0484
     13 C          61.2604   86.2089    9.7562 C.ar    1  UNL1       -0.0204
     14 C          62.0647   85.8375    8.5458 C.ar    1  UNL1       -0.0042
     15 C          63.2093   84.8763    8.6718 C.ar    1  UNL1       -0.0003
     16 C          63.5497   84.2865   10.0083 C.ar    1  UNL1        0.0005
     17 C          62.7454   84.6579   11.2188 C.ar    1  UNL1        0.0072
     18 C          61.6008   85.6191   11.0928 C.ar    1  UNL1       -0.0037
     19 C          63.0859   84.0681   12.5553 C.ar    1  UNL1        0.0500
     20 C          62.8413   82.6510   12.9817 C.ar    1  UNL1        0.1060
     21 N          63.3349   82.4989   14.3900 N.ar    1  UNL1       -0.2347
     22 C          63.8845   83.8221   14.8339 C.ar    1  UNL1        0.1345
     23 S          63.7306   84.7919   13.7000 S.2     1  UNL1       -0.0645
     24 C          61.7165   90.4590   10.9062 C.3     1  UNL1        0.1001
     25 N          63.1280   90.1530   11.3111 N.3     1  UNL1       -0.2928
     26 H          63.7340   90.5708   10.6049 H       1  UNL1        0.1236
     27 C          63.6408   90.6073   12.6455 C.3     1  UNL1        0.0849
     28 C          63.1619   89.9390   13.9001 C.3     1  UNL1        0.0604
     29 C          63.6747   90.3933   15.2345 C.3     1  UNL1        0.1363
     30 C          62.7218   89.2770   15.5443 C.3     1  UNL1        0.0402
     31 C          62.9974   89.4482   17.0089 C.3     1  UNL1        0.0072
     32 C          63.9502   90.5645   16.6991 C.3     1  UNL1        0.0402
     33 O          64.6663   91.5159   15.3143 O.3     1  UNL1       -0.4676
     34 C          65.1452   92.1841   14.0597 C.ar    1  UNL1        0.2216
     35 N          66.1370   93.3068   14.1395 N.ar    1  UNL1       -0.2107
     36 C          66.6159   93.9750   12.8849 C.ar    1  UNL1        0.0977
     37 C          66.1031   93.5207   11.5505 C.ar    1  UNL1       -0.0031
     38 C          65.1114   92.3982   11.4707 C.ar    1  UNL1       -0.0011
     39 C          64.6325   91.7299   12.7253 C.ar    1  UNL1        0.0449
     40 C          66.5820   94.1890   10.2959 C.3     1  UNL1        0.0279
     41 C          67.5946   93.5084    9.4232 C.3     1  UNL1        0.0041
     42 C          67.6858   92.3810   10.4084 C.3     1  UNL1        0.0003
     43 C          67.5033   94.6359    8.4380 C.3     1  UNL1        0.0003
     44 C          68.6071   92.8278    8.5506 C.3     1  UNL1        0.0003
@<TRIPOS>BOND
     1    10    11    1
     2    11     9    1
     3     9     5    1
     4     5     6    2
     5     5     7   am
     6     7     4    1
     7     4    12    1
     8    12    13    1
     9    13    14   ar
    10    14    15   ar
    11    15    16   ar
    12    16    17   ar
    13    17    19    1
    14    19    20   ar
    15    20    21   ar
    16    21    22   ar
    17    22    23   ar
    18    17    18   ar
    19     4     1    1
    20     1     2    1
    21     1    24    1
    22    24    25    1
    23    27    25    1
    24    27    28    1
    25    28    29    1
    26    29    30    1
    27    30    31    1
    28    31    32    1
    29    29    33    1
    30    33    34    1
    31    34    35   ar
    32    35    36   ar
    33    36    37   ar
    34    37    40    1
    35    40    41    1
    36    41    42    1
    37    41    43    1
    38    41    44    1
    39    37    38   ar
    40    38    39   ar
    41    18    13   ar
    42    39    27    1
    43    23    19   ar
    44    32    29    1
    45    39    34   ar
    46     7     8    1
    47     2     3    1
    48    25    26    1
@<TRIPOS>MOLECULE
*****
 44 48 0 0 0
SMALL
GASTEIGER

@<TRIPOS>ATOM
      1 C          60.6626   89.4295   11.0041 C.3     1  UNL1        0.1443
      2 O          60.0166   89.0115   12.2917 O.3     1  UNL1       -0.3813
      3 H          60.3301   89.5820   13.0109 H       1  UNL1        0.2105
      4 C          60.3425   88.7003    9.7331 C.3     1  UNL1        0.1041
      5 C          59.4181   88.9569    7.3186 C.2     1  UNL1        0.2527
      6 O          58.5859   87.7230    7.5061 O.2     1  UNL1       -0.2724
      7 N          60.2963   89.4455    8.4321 N.am    1  UNL1       -0.3012
      8 H          60.8425   90.2554    8.3090 H       1  UNL1        0.1495
      9 C          59.3719   89.7022    6.0177 C.3     1  UNL1        0.2269
     10 C          58.4922   91.7973    4.7579 C.3     1  UNL1        0.1748
     11 O          58.2862   90.7064    5.7667 O.3     1  UNL1       -0.3418
     12 C          60.0684   87.2259    9.7629 C.3     1  UNL1        0.0484
     13 C          61.2057   86.2501    9.6959 C.ar    1  UNL1       -0.0204
     14 C          61.9263   86.0261    8.3996 C.ar    1  UNL1       -0.0042
     15 C          63.0636   85.0503    8.3326 C.ar    1  UNL1       -0.0003
     16 C          63.4803   84.2987    9.5620 C.ar    1  UNL1        0.0005
     17 C          62.7597   84.5227   10.8584 C.ar    1  UNL1        0.0072
     18 C          61.6224   85.4985   10.9254 C.ar    1  UNL1       -0.0037
     19 C          63.1764   83.7710   12.0877 C.ar    1  UNL1        0.0500
     20 C          64.0716   84.2866   13.1752 C.ar    1  UNL1        0.1060
     21 N          64.2196   83.2060   14.2050 N.ar    1  UNL1       -0.2347
     22 C          63.4158   82.0227   13.7540 C.ar    1  UNL1        0.1345
     23 S          62.7711   82.3719   12.4454 S.2     1  UNL1       -0.0645
     24 C          61.6290   90.5767   10.9877 C.3     1  UNL1        0.1001
     25 N          63.1041   90.3159   11.0635 N.3     1  UNL1       -0.2928
     26 H          63.4318   90.1968   10.1050 H       1  UNL1        0.1236
     27 C          64.0112   91.3210   11.7095 C.3     1  UNL1        0.0849
     28 C          64.7024   92.3553   10.8713 C.3     1  UNL1        0.0604
     29 C          65.6094   93.3602   11.5171 C.3     1  UNL1        0.1363
     30 C          65.6396   93.6933   10.0548 C.3     1  UNL1        0.0402
     31 C          66.5868   94.8230   10.3316 C.3     1  UNL1        0.0072
     32 C          66.5566   94.4900   11.7940 C.3     1  UNL1        0.0402
     33 O          65.8254   93.3309   13.0011 O.3     1  UNL1       -0.4676
     34 C          65.1343   92.2966   13.8394 C.ar    1  UNL1        0.2216
     35 N          65.3503   92.2674   15.3235 N.ar    1  UNL1       -0.2107
     36 C          64.6592   91.2331   16.1617 C.ar    1  UNL1        0.0977
     37 C          63.7521   90.2280   15.5158 C.ar    1  UNL1       -0.0031
     38 C          63.5361   90.2574   14.0317 C.ar    1  UNL1       -0.0011
     39 C          64.2272   91.2917   13.1935 C.ar    1  UNL1        0.0449
     40 C          63.0609   89.1937   16.3540 C.3     1  UNL1        0.0279
     41 C          63.4603   87.7518   16.2461 C.3     1  UNL1        0.0041
     42 C          64.2222   88.0568   14.9906 C.3     1  UNL1        0.0003
     43 C          62.6982   87.4469   17.5017 C.3     1  UNL1        0.0003
     44 C          63.8596   86.3100   16.1383 C.3     1  UNL1        0.0003
@<TRIPOS>BOND
     1    10    11    1
     2    11     9    1
     3     9     5    1
     4     5     6    2
     5     5     7   am
     6     7     4    1
     7     4    12    1
     8    12    13    1
     9    13    14   ar
    10    14    15   ar
    11    15    16   ar
    12    16    17   ar
    13    17    19    1
    14    19    20   ar
    15    20    21   ar
    16    21    22   ar
    17    22    23   ar
    18    17    18   ar
    19     4     1    1
    20     1     2    1
    21     1    24    1
    22    24    25    1
    23    27    25    1
    24    27    28    1
    25    28    29    1
    26    29    30    1
    27    30    31    1
    28    31    32    1
    29    29    33    1
    30    33    34    1
    31    34    35   ar
    32    35    36   ar
    33    36    37   ar
    34    37    40    1
    35    40    41    1
    36    41    42    1
    37    41    43    1
    38    41    44    1
    39    37    38   ar
    40    38    39   ar
    41    18    13   ar
    42    39    27    1
    43    23    19   ar
    44    32    29    1
    45    39    34   ar
    46     7     8    1
    47     2     3    1
    48    25    26    1
@<TRIPOS>MOLECULE
*****
 44 48 0 0 0
SMALL
GASTEIGER

@<TRIPOS>ATOM
      1 C          60.5975   89.6493   11.7604 C.3     1  UNL1        0.1443
      2 O          59.5345   90.7031   11.8582 O.3     1  UNL1       -0.3813
      3 H          58.7209   90.3815   11.4392 H       1  UNL1        0.2105
      4 C          61.9592   89.9018   12.3366 C.3     1  UNL1        0.1041
      5 C          63.1186   89.3009   14.5826 C.2     1  UNL1        0.2527
      6 O          63.9539   88.2742   13.8767 O.2     1  UNL1       -0.2724
      7 N          62.1213   90.1147   13.8125 N.am    1  UNL1       -0.3012
      8 H          61.5731   90.7886   14.2758 H       1  UNL1        0.1495
      9 C          63.2808   89.5139   16.0585 C.3     1  UNL1        0.2269
     10 C          64.2622   91.8946   16.4034 C.3     1  UNL1        0.1748
     11 O          63.1682   90.8946   16.6339 O.3     1  UNL1       -0.3418
     12 C          63.1587   89.9414   11.4369 C.3     1  UNL1        0.0484
     13 C          64.1034   91.1049   11.4973 C.ar    1  UNL1       -0.0204
     14 C          64.1740   92.0738   10.3544 C.ar    1  UNL1       -0.0042
     15 C          65.1188   93.2373   10.4148 C.ar    1  UNL1       -0.0003
     16 C          65.9930   93.4319   11.6180 C.ar    1  UNL1        0.0005
     17 C          65.9225   92.4630   12.7609 C.ar    1  UNL1        0.0072
     18 C          64.9777   91.2995   12.7006 C.ar    1  UNL1       -0.0037
     19 C          66.7967   92.6576   13.9642 C.ar    1  UNL1        0.0500
     20 C          67.0581   93.9589   14.6628 C.ar    1  UNL1        0.1060
     21 N          67.9860   93.6907   15.8105 N.ar    1  UNL1       -0.2347
     22 C          68.2980   92.2235   15.8211 C.ar    1  UNL1        0.1345
     23 S          67.5629   91.5851   14.6800 S.2     1  UNL1       -0.0645
     24 C          60.2988   88.3430   11.0862 C.3     1  UNL1        0.1001
     25 N          60.8934   87.0721   11.6166 N.3     1  UNL1       -0.2928
     26 H          60.1312   86.5467   12.0448 H       1  UNL1        0.1236
     27 C          61.6004   86.1301   10.6877 C.3     1  UNL1        0.0849
     28 C          61.2653   86.1259    9.2257 C.3     1  UNL1        0.0604
     29 C          61.9723   85.1839    8.2969 C.3     1  UNL1        0.1363
     30 C          61.0212   85.9484    7.4245 C.3     1  UNL1        0.0402
     31 C          61.4984   85.1780    6.2291 C.3     1  UNL1        0.0072
     32 C          62.4495   84.4135    7.1015 C.3     1  UNL1        0.0402
     33 O          63.0145   84.2461    8.8301 O.3     1  UNL1       -0.4676
     34 C          63.3496   84.2503   10.2922 C.ar    1  UNL1        0.2216
     35 N          64.3918   83.3124   10.8254 N.ar    1  UNL1       -0.2107
     36 C          64.7269   83.3165   12.2875 C.ar    1  UNL1        0.0977
     37 C          64.0198   84.2586   13.2164 C.ar    1  UNL1       -0.0031
     38 C          62.9777   85.1964   12.6831 C.ar    1  UNL1       -0.0011
     39 C          62.6426   85.1922   11.2210 C.ar    1  UNL1        0.0449
     40 C          64.3550   84.2628   14.6784 C.3     1  UNL1        0.0279
     41 C          63.3499   84.7559   15.6768 C.3     1  UNL1        0.0041
     42 C          62.4846   83.5636   15.3945 C.3     1  UNL1        0.0003
     43 C          64.2153   85.9482   15.9592 C.3     1  UNL1        0.0003
     44 C          62.3448   85.2489   16.6752 C.3     1  UNL1        0.0003
@<TRIPOS>BOND
     1    10    11    1
     2    11     9    1
     3     9     5    1
     4     5     6    2
     5     5     7   am
     6     7     4    1
     7     4    12    1
     8    12    13    1
     9    13    14   ar
    10    14    15   ar
    11    15    16   ar
    12    16    17   ar
    13    17    19    1
    14    19    20   ar
    15    20    21   ar
    16    21    22   ar
    17    22    23   ar
    18    17    18   ar
    19     4     1    1
    20     1     2    1
    21     1    24    1
    22    24    25    1
    23    27    25    1
    24    27    28    1
    25    28    29    1
    26    29    30    1
    27    30    31    1
    28    31    32    1
    29    29    33    1
    30    33    34    1
    31    34    35   ar
    32    35    36   ar
    33    36    37   ar
    34    37    40    1
    35    40    41    1
    36    41    42    1
    37    41    43    1
    38    41    44    1
    39    37    38   ar
    40    38    39   ar
    41    18    13   ar
    42    39    27    1
    43    23    19   ar
    44    32    29    1
    45    39    34   ar
    46     7     8    1
    47     2     3    1
    48    25    26    1
@<TRIPOS>MOLECULE
*****
 44 48 0 0 0
SMALL
GASTEIGER

@<TRIPOS>ATOM
      1 C          60.0117   89.0915   10.7094 C.3     1  UNL1        0.1443
      2 O          59.3746   90.1408   11.5715 O.3     1  UNL1       -0.3813
      3 H          58.8228   89.7141   12.2455 H       1  UNL1        0.2105
      4 C          60.9190   89.4942    9.5848 C.3     1  UNL1        0.1041
      5 C          59.4676   89.2411    7.4449 C.2     1  UNL1        0.2527
      6 O          59.1678   87.8191    7.8164 O.2     1  UNL1       -0.2724
      7 N          60.3432   90.0787    8.3291 N.am    1  UNL1       -0.3012
      8 H          60.5399   91.0120    8.0853 H       1  UNL1        0.1495
      9 C          58.8918   89.8256    6.1892 C.3     1  UNL1        0.2269
     10 C          59.0891   91.9428    4.6964 C.3     1  UNL1        0.1748
     11 O          59.7203   90.7445    5.3410 O.3     1  UNL1       -0.3418
     12 C          62.4021   89.3125    9.7160 C.3     1  UNL1        0.0484
     13 C          63.1179   89.8370   10.9253 C.ar    1  UNL1       -0.0204
     14 C          63.0594   89.0797   12.2188 C.ar    1  UNL1       -0.0042
     15 C          63.7752   89.6042   13.4281 C.ar    1  UNL1       -0.0003
     16 C          64.5496   90.8860   13.3440 C.ar    1  UNL1        0.0005
     17 C          64.6082   91.6434   12.0505 C.ar    1  UNL1        0.0072
     18 C          63.8924   91.1189   10.8412 C.ar    1  UNL1       -0.0037
     19 C          65.3827   92.9252   11.9664 C.ar    1  UNL1        0.0500
     20 C          66.1025   93.5963   13.0984 C.ar    1  UNL1        0.1060
     21 N          66.7379   94.8469   12.5672 N.ar    1  UNL1       -0.2347
     22 C          66.4108   94.9487   11.1069 C.ar    1  UNL1        0.1345
     23 S          65.5732   93.7610   10.7356 S.2     1  UNL1       -0.0645
     24 C          59.7414   87.6396   10.9718 C.3     1  UNL1        0.1001
     25 N          60.8137   86.7716   11.5606 N.3     1  UNL1       -0.2928
     26 H          60.3601   86.1670   12.2455 H       1  UNL1        0.1236
     27 C          61.6308   85.8817   10.6714 C.3     1  UNL1        0.0849
     28 C          61.3865   85.8720    9.1914 C.3     1  UNL1        0.0604
     29 C          62.2035   84.9822    8.3023 C.3     1  UNL1        0.1363
     30 C          61.2639   85.6979    7.3776 C.3     1  UNL1        0.0402
     31 C          61.8580   84.9684    6.2092 C.3     1  UNL1        0.0072
     32 C          62.7977   84.2527    7.1339 C.3     1  UNL1        0.0402
     33 O          63.2648   84.1021    8.8930 O.3     1  UNL1       -0.4676
     34 C          63.5091   84.1119   10.3730 C.ar    1  UNL1        0.2216
     35 N          64.5705   83.2317   10.9637 N.ar    1  UNL1       -0.2107
     36 C          64.8148   83.2415   12.4437 C.ar    1  UNL1        0.0977
     37 C          63.9977   84.1313   13.3328 C.ar    1  UNL1       -0.0031
     38 C          62.9364   85.0114   12.7421 C.ar    1  UNL1       -0.0011
     39 C          62.6921   85.0016   11.2621 C.ar    1  UNL1        0.0449
     40 C          64.2420   84.1410   14.8128 C.3     1  UNL1        0.0279
     41 C          63.8237   85.3245   15.6342 C.3     1  UNL1        0.0041
     42 C          62.6528   84.5470   16.1580 C.3     1  UNL1        0.0003
     43 C          64.9947   86.1019   15.1104 C.3     1  UNL1        0.0003
     44 C          63.4055   86.5078   16.4556 C.3     1  UNL1        0.0003
@<TRIPOS>BOND
     1    10    11    1
     2    11     9    1
     3     9     5    1
     4     5     6    2
     5     5     7   am
     6     7     4    1
     7     4    12    1
     8    12    13    1
     9    13    14   ar
    10    14    15   ar
    11    15    16   ar
    12    16    17   ar
    13    17    19    1
    14    19    20   ar
    15    20    21   ar
    16    21    22   ar
    17    22    23   ar
    18    17    18   ar
    19     4     1    1
    20     1     2    1
    21     1    24    1
    22    24    25    1
    23    27    25    1
    24    27    28    1
    25    28    29    1
    26    29    30    1
    27    30    31    1
    28    31    32    1
    29    29    33    1
    30    33    34    1
    31    34    35   ar
    32    35    36   ar
    33    36    37   ar
    34    37    40    1
    35    40    41    1
    36    41    42    1
    37    41    43    1
    38    41    44    1
    39    37    38   ar
    40    38    39   ar
    41    18    13   ar
    42    39    27    1
    43    23    19   ar
    44    32    29    1
    45    39    34   ar
    46     7     8    1
    47     2     3    1
    48    25    26    1
@<TRIPOS>MOLECULE
*****
 44 48 0 0 0
SMALL
GASTEIGER

@<TRIPOS>ATOM
      1 C          60.7977   89.6650   11.7143 C.3     1  UNL1        0.1443
      2 O          59.5492   90.4494   11.9896 O.3     1  UNL1       -0.3813
      3 H          58.7853   89.9833   11.6152 H       1  UNL1        0.2105
      4 C          62.1247   90.1749   12.1928 C.3     1  UNL1        0.1041
      5 C          63.2468   89.2051   14.3259 C.2     1  UNL1        0.2527
      6 O          63.7981   88.0674   13.5187 O.2     1  UNL1       -0.2724
      7 N          62.4101   90.2589   13.6630 N.am    1  UNL1       -0.3012
      8 H          62.0482   91.0056   14.1928 H       1  UNL1        0.1495
      9 C          63.5322   89.2891   15.7961 C.3     1  UNL1        0.2269
     10 C          64.1659   91.6867   16.5707 C.3     1  UNL1        0.1748
     11 O          63.1994   90.5398   16.5546 O.3     1  UNL1       -0.3418
     12 C          63.1663   90.6010   11.2011 C.3     1  UNL1        0.0484
     13 C          64.2437   91.5609   11.6107 C.ar    1  UNL1       -0.0204
     14 C          64.8345   91.4824   12.9871 C.ar    1  UNL1       -0.0042
     15 C          65.9119   92.4423   13.3967 C.ar    1  UNL1       -0.0003
     16 C          66.3985   93.4808   12.4298 C.ar    1  UNL1        0.0005
     17 C          65.8076   93.5593   11.0533 C.ar    1  UNL1        0.0072
     18 C          64.7302   92.5994   10.6437 C.ar    1  UNL1       -0.0037
     19 C          66.2941   94.5978   10.0864 C.ar    1  UNL1        0.0500
     20 C          67.3281   94.3932    9.0192 C.ar    1  UNL1        0.1060
     21 N          67.5051   95.6921    8.2901 N.ar    1  UNL1       -0.2347
     22 C          66.5805   96.6994    8.9068 C.ar    1  UNL1        0.1345
     23 S          65.8321   96.0231   10.0169 S.2     1  UNL1       -0.0645
     24 C          60.7192   88.3704   10.9605 C.3     1  UNL1        0.1001
     25 N          61.3431   87.1314   11.5309 N.3     1  UNL1       -0.2928
     26 H          60.6194   86.6606   12.0740 H       1  UNL1        0.1236
     27 C          61.9370   86.1014   10.6162 C.3     1  UNL1        0.0849
     28 C          61.5948   86.1087    9.1558 C.3     1  UNL1        0.0604
     29 C          62.1887   85.0788    8.2412 C.3     1  UNL1        0.1363
     30 C          61.3220   85.9279    7.3591 C.3     1  UNL1        0.0402
     31 C          61.7046   85.0891    6.1758 C.3     1  UNL1        0.0072
     32 C          62.5713   84.2400    7.0579 C.3     1  UNL1        0.0402
     33 O          63.1248   84.0417    8.7870 O.3     1  UNL1       -0.4676
     34 C          63.4670   84.0344   10.2474 C.ar    1  UNL1        0.2216
     35 N          64.4032   82.9971   10.7931 N.ar    1  UNL1       -0.2107
     36 C          64.7455   82.9899   12.2536 C.ar    1  UNL1        0.0977
     37 C          64.1516   84.0198   13.1682 C.ar    1  UNL1       -0.0031
     38 C          63.2154   85.0570   12.6224 C.ar    1  UNL1       -0.0011
     39 C          62.8732   85.0643   11.1620 C.ar    1  UNL1        0.0449
     40 C          64.4938   84.0126   14.6286 C.3     1  UNL1        0.0279
     41 C          63.6895   84.8347   15.5915 C.3     1  UNL1        0.0041
     42 C          62.6177   83.7854   15.5922 C.3     1  UNL1        0.0003
     43 C          64.7613   85.8841   15.5908 C.3     1  UNL1        0.0003
     44 C          62.8851   85.6568   16.5544 C.3     1  UNL1        0.0003
@<TRIPOS>BOND
     1    10    11    1
     2    11     9    1
     3     9     5    1
     4     5     6    2
     5     5     7   am
     6     7     4    1
     7     4    12    1
     8    12    13    1
     9    13    14   ar
    10    14    15   ar
    11    15    16   ar
    12    16    17   ar
    13    17    19    1
    14    19    20   ar
    15    20    21   ar
    16    21    22   ar
    17    22    23   ar
    18    17    18   ar
    19     4     1    1
    20     1     2    1
    21     1    24    1
    22    24    25    1
    23    27    25    1
    24    27    28    1
    25    28    29    1
    26    29    30    1
    27    30    31    1
    28    31    32    1
    29    29    33    1
    30    33    34    1
    31    34    35   ar
    32    35    36   ar
    33    36    37   ar
    34    37    40    1
    35    40    41    1
    36    41    42    1
    37    41    43    1
    38    41    44    1
    39    37    38   ar
    40    38    39   ar
    41    18    13   ar
    42    39    27    1
    43    23    19   ar
    44    32    29    1
    45    39    34   ar
    46     7     8    1
    47     2     3    1
    48    25    26    1
@<TRIPOS>MOLECULE
*****
 44 48 0 0 0
SMALL
GASTEIGER

@<TRIPOS>ATOM
      1 C          60.5767   88.7909   11.4485 C.3     1  UNL1        0.1443
      2 O          59.3842   88.5469   12.3252 O.3     1  UNL1       -0.3813
      3 H          59.0513   89.3937   12.6613 H       1  UNL1        0.2105
      4 C          61.2807   87.6354   10.8012 C.3     1  UNL1        0.1041
      5 C          59.9893   87.3348    8.5669 C.2     1  UNL1        0.2527
      6 O          60.1684   88.7936    8.2671 O.2     1  UNL1       -0.2724
      7 N          60.5455   86.7557    9.8339 N.am    1  UNL1       -0.3012
      8 H          60.4279   85.7983   10.0307 H       1  UNL1        0.1495
      9 C          59.2541   86.4551    7.5997 C.3     1  UNL1        0.2269
     10 C          61.3992   85.1629    6.9076 C.3     1  UNL1        0.1748
     11 O          59.9086   85.2149    7.0670 O.3     1  UNL1       -0.3418
     12 C          62.7199   87.3596   11.1211 C.3     1  UNL1        0.0484
     13 C          63.0739   86.4321   12.2456 C.ar    1  UNL1       -0.0204
     14 C          63.7558   86.9648   13.4708 C.ar    1  UNL1       -0.0042
     15 C          64.1097   86.0374   14.5953 C.ar    1  UNL1       -0.0003
     16 C          63.7818   84.5772   14.4946 C.ar    1  UNL1        0.0005
     17 C          63.0999   84.0443   13.2694 C.ar    1  UNL1        0.0072
     18 C          62.7459   84.9718   12.1449 C.ar    1  UNL1       -0.0037
     19 C          62.7720   82.5841   13.1687 C.ar    1  UNL1        0.0500
     20 C          63.1763   81.6645   12.0548 C.ar    1  UNL1        0.1060
     21 N          62.6363   80.2992   12.3618 N.ar    1  UNL1       -0.2347
     22 C          61.8983   80.3750   13.6655 C.ar    1  UNL1        0.1345
     23 S          61.9822   81.7872   14.1641 S.2     1  UNL1       -0.0645
     24 C          61.0651   90.1906   11.2192 C.3     1  UNL1        0.1001
     25 N          62.5368   90.4665   11.1320 N.3     1  UNL1       -0.2928
     26 H          62.6535   91.2364   10.4732 H       1  UNL1        0.1236
     27 C          63.3058   90.8328   12.3668 C.3     1  UNL1        0.0849
     28 C          62.9280   90.2361   13.6901 C.3     1  UNL1        0.0604
     29 C          63.6968   90.6024   14.9249 C.3     1  UNL1        0.1363
     30 C          62.6476   89.6377   15.3927 C.3     1  UNL1        0.0402
     31 C          63.1625   89.7585   16.7965 C.3     1  UNL1        0.0072
     32 C          64.2117   90.7231   16.3286 C.3     1  UNL1        0.0402
     33 O          64.8435   91.5653   14.8363 O.3     1  UNL1       -0.4676
     34 C          65.2212   92.1620   13.5130 C.ar    1  UNL1        0.2216
     35 N          66.3680   93.1250   13.4245 N.ar    1  UNL1       -0.2107
     36 C          66.7458   93.7217   12.1011 C.ar    1  UNL1        0.0977
     37 C          65.9768   93.3554   10.8663 C.ar    1  UNL1       -0.0031
     38 C          64.8302   92.3924   10.9549 C.ar    1  UNL1       -0.0011
     39 C          64.4524   91.7958   12.2782 C.ar    1  UNL1        0.0449
     40 C          66.3546   93.9521    9.5430 C.3     1  UNL1        0.0279
     41 C          66.7212   95.4038    9.4521 C.3     1  UNL1        0.0041
     42 C          67.9364   95.0466    8.6486 C.3     1  UNL1        0.0003
     43 C          65.5059   95.7610   10.2556 C.3     1  UNL1        0.0003
     44 C          67.0878   96.8555    9.3612 C.3     1  UNL1        0.0003
@<TRIPOS>BOND
     1    10    11    1
     2    11     9    1
     3     9     5    1
     4     5     6    2
     5     5     7   am
     6     7     4    1
     7     4    12    1
     8    12    13    1
     9    13    14   ar
    10    14    15   ar
    11    15    16   ar
    12    16    17   ar
    13    17    19    1
    14    19    20   ar
    15    20    21   ar
    16    21    22   ar
    17    22    23   ar
    18    17    18   ar
    19     4     1    1
    20     1     2    1
    21     1    24    1
    22    24    25    1
    23    27    25    1
    24    27    28    1
    25    28    29    1
    26    29    30    1
    27    30    31    1
    28    31    32    1
    29    29    33    1
    30    33    34    1
    31    34    35   ar
    32    35    36   ar
    33    36    37   ar
    34    37    40    1
    35    40    41    1
    36    41    42    1
    37    41    43    1
    38    41    44    1
    39    37    38   ar
    40    38    39   ar
    41    18    13   ar
    42    39    27    1
    43    23    19   ar
    44    32    29    1
    45    39    34   ar
    46     7     8    1
    47     2     3    1
    48    25    26    1
@<TRIPOS>MOLECULE
*****
 44 48 0 0 0
SMALL
GASTEIGER

@<TRIPOS>ATOM
      1 C          61.0538   89.4255   11.5939 C.3     1  UNL1        0.1443
      2 O          60.1971   90.5844   12.0098 O.3     1  UNL1       -0.3813
      3 H          59.2651   90.3739   11.8423 H       1  UNL1        0.2105
      4 C          62.5437   89.4998   11.7511 C.3     1  UNL1        0.1041
      5 C          63.8891   91.6075   11.0460 C.2     1  UNL1        0.2527
      6 O          63.5836   92.2451   12.3691 O.2     1  UNL1       -0.2724
      7 N          63.3692   90.2349   10.7371 N.am    1  UNL1       -0.3012
      8 H          63.5697   89.8165    9.8688 H       1  UNL1        0.1495
      9 C          64.7146   92.3427   10.0321 C.3     1  UNL1        0.2269
     10 C          66.2746   94.1521   11.0530 C.3     1  UNL1        0.1748
     11 O          66.0913   92.8196   10.3891 O.3     1  UNL1       -0.3418
     12 C          63.2081   88.8389   12.9223 C.3     1  UNL1        0.0484
     13 C          63.6819   89.6658   14.0806 C.ar    1  UNL1       -0.0204
     14 C          62.8332   89.7887   15.3113 C.ar    1  UNL1       -0.0042
     15 C          63.3071   90.6156   16.4696 C.ar    1  UNL1       -0.0003
     16 C          64.6296   91.3196   16.3973 C.ar    1  UNL1        0.0005
     17 C          65.4783   91.1968   15.1666 C.ar    1  UNL1        0.0072
     18 C          65.0045   90.3699   14.0082 C.ar    1  UNL1       -0.0037
     19 C          66.8008   91.9008   15.0942 C.ar    1  UNL1        0.0500
     20 C          67.7658   91.8486   13.9470 C.ar    1  UNL1        0.1060
     21 N          68.9519   92.6962   14.3001 N.ar    1  UNL1       -0.2347
     22 C          68.7200   93.2721   15.6655 C.ar    1  UNL1        0.1345
     23 S          67.3906   92.7805   16.1563 S.2     1  UNL1       -0.0645
     24 C          60.4207   88.1923   11.0207 C.3     1  UNL1        0.1001
     25 N          60.8463   86.8373   11.5030 N.3     1  UNL1       -0.2928
     26 H          59.9955   86.3327   11.7520 H       1  UNL1        0.1236
     27 C          61.6372   85.9350   10.6027 C.3     1  UNL1        0.0849
     28 C          61.3735   85.9304    9.1261 C.3     1  UNL1        0.0604
     29 C          62.1643   85.0281    8.2258 C.3     1  UNL1        0.1363
     30 C          61.2244   85.7597    7.3139 C.3     1  UNL1        0.0402
     31 C          61.7913   85.0216    6.1375 C.3     1  UNL1        0.0072
     32 C          62.7312   84.2900    7.0494 C.3     1  UNL1        0.0402
     33 O          63.2188   84.1305    8.8022 O.3     1  UNL1       -0.4676
     34 C          63.4825   84.1351   10.2788 C.ar    1  UNL1        0.2216
     35 N          64.5371   83.2374   10.8551 N.ar    1  UNL1       -0.2107
     36 C          64.8008   83.2420   12.3318 C.ar    1  UNL1        0.0977
     37 C          64.0099   84.1443   13.2321 C.ar    1  UNL1       -0.0031
     38 C          62.9554   85.0420   12.6557 C.ar    1  UNL1       -0.0011
     39 C          62.6917   85.0374   11.1791 C.ar    1  UNL1        0.0449
     40 C          64.2736   84.1490   14.7087 C.3     1  UNL1        0.0279
     41 C          63.8651   85.3290   15.5398 C.3     1  UNL1        0.0041
     42 C          62.6798   84.5619   16.0463 C.3     1  UNL1        0.0003
     43 C          65.0506   86.0961   15.0333 C.3     1  UNL1        0.0003
     44 C          63.4566   86.5090   16.3709 C.3     1  UNL1        0.0003
@<TRIPOS>BOND
     1    10    11    1
     2    11     9    1
     3     9     5    1
     4     5     6    2
     5     5     7   am
     6     7     4    1
     7     4    12    1
     8    12    13    1
     9    13    14   ar
    10    14    15   ar
    11    15    16   ar
    12    16    17   ar
    13    17    19    1
    14    19    20   ar
    15    20    21   ar
    16    21    22   ar
    17    22    23   ar
    18    17    18   ar
    19     4     1    1
    20     1     2    1
    21     1    24    1
    22    24    25    1
    23    27    25    1
    24    27    28    1
    25    28    29    1
    26    29    30    1
    27    30    31    1
    28    31    32    1
    29    29    33    1
    30    33    34    1
    31    34    35   ar
    32    35    36   ar
    33    36    37   ar
    34    37    40    1
    35    40    41    1
    36    41    42    1
    37    41    43    1
    38    41    44    1
    39    37    38   ar
    40    38    39   ar
    41    18    13   ar
    42    39    27    1
    43    23    19   ar
    44    32    29    1
    45    39    34   ar
    46     7     8    1
    47     2     3    1
    48    25    26    1
@<TRIPOS>MOLECULE
*****
 44 48 0 0 0
SMALL
GASTEIGER

@<TRIPOS>ATOM
      1 C          60.9219   89.5077    9.6721 C.3     1  UNL1        0.1443
      2 O          60.1775   90.0078    8.4697 O.3     1  UNL1       -0.3813
      3 H          60.5292   90.8734    8.2087 H       1  UNL1        0.2105
      4 C          60.5666   88.1814   10.2759 C.3     1  UNL1        0.1041
      5 C          59.3325   89.1973   12.3239 C.2     1  UNL1        0.2527
      6 O          58.9249   90.3777   11.4928 O.2     1  UNL1       -0.2724
      7 N          60.1533   88.0992   11.7155 N.am    1  UNL1       -0.3012
      8 H          60.4208   87.3245   12.2610 H       1  UNL1        0.1495
      9 C          58.9191   89.1152   13.7635 C.3     1  UNL1        0.2269
     10 C          56.5607   88.1966   13.1770 C.3     1  UNL1        0.1748
     11 O          57.6941   88.3401   14.1490 O.3     1  UNL1       -0.3418
     12 C          60.6248   86.9372    9.4401 C.3     1  UNL1        0.0484
     13 C          61.6815   85.9057    9.7032 C.ar    1  UNL1       -0.0204
     14 C          62.5436   85.4117    8.5795 C.ar    1  UNL1       -0.0042
     15 C          63.6004   84.3802    8.8425 C.ar    1  UNL1       -0.0003
     16 C          63.7951   83.8426   10.2292 C.ar    1  UNL1        0.0005
     17 C          62.9330   84.3365   11.3530 C.ar    1  UNL1        0.0072
     18 C          61.8762   85.3681   11.0900 C.ar    1  UNL1       -0.0037
     19 C          63.1276   83.7990   12.7398 C.ar    1  UNL1        0.0500
     20 C          62.5283   82.5383   13.2888 C.ar    1  UNL1        0.1060
     21 N          62.9861   82.3878   14.7093 N.ar    1  UNL1       -0.2347
     22 C          63.8683   83.5555   15.0381 C.ar    1  UNL1        0.1345
     23 S          63.9557   84.4276   13.8209 S.2     1  UNL1       -0.0645
     24 C          62.0214   90.3340   10.2707 C.3     1  UNL1        0.1001
     25 N          63.1052   89.6739   11.0705 N.3     1  UNL1       -0.2928
     26 H          63.9167   89.5946   10.4576 H       1  UNL1        0.1236
     27 C          63.5851   90.3020   12.3454 C.3     1  UNL1        0.0849
     28 C          63.1822   89.7181   13.6671 C.3     1  UNL1        0.0604
     29 C          63.6620   90.3461   14.9419 C.3     1  UNL1        0.1363
     30 C          62.8210   89.1821   15.3752 C.3     1  UNL1        0.0402
     31 C          63.0924   89.5204   16.8111 C.3     1  UNL1        0.0072
     32 C          63.9334   90.6845   16.3779 C.3     1  UNL1        0.0402
     33 O          64.5446   91.5580   14.8951 O.3     1  UNL1       -0.4676
     34 C          64.9475   92.1419   13.5734 C.ar    1  UNL1        0.2216
     35 N          65.8301   93.3539   13.5267 N.ar    1  UNL1       -0.2107
     36 C          66.2329   93.9378   12.2050 C.ar    1  UNL1        0.0977
     37 C          65.7531   93.3097   10.9301 C.ar    1  UNL1       -0.0031
     38 C          64.8705   92.0977   10.9769 C.ar    1  UNL1       -0.0011
     39 C          64.4677   91.5139   12.2986 C.ar    1  UNL1        0.0449
     40 C          66.1559   93.8935    9.6084 C.3     1  UNL1        0.0279
     41 C          66.7301   95.2778    9.5437 C.3     1  UNL1        0.0041
     42 C          65.4061   95.8464    9.9604 C.3     1  UNL1        0.0003
     43 C          68.0541   94.7091    9.1270 C.3     1  UNL1        0.0003
     44 C          67.3042   96.6620    9.4791 C.3     1  UNL1        0.0003
@<TRIPOS>BOND
     1    10    11    1
     2    11     9    1
     3     9     5    1
     4     5     6    2
     5     5     7   am
     6     7     4    1
     7     4    12    1
     8    12    13    1
     9    13    14   ar
    10    14    15   ar
    11    15    16   ar
    12    16    17   ar
    13    17    19    1
    14    19    20   ar
    15    20    21   ar
    16    21    22   ar
    17    22    23   ar
    18    17    18   ar
    19     4     1    1
    20     1     2    1
    21     1    24    1
    22    24    25    1
    23    27    25    1
    24    27    28    1
    25    28    29    1
    26    29    30    1
    27    30    31    1
    28    31    32    1
    29    29    33    1
    30    33    34    1
    31    34    35   ar
    32    35    36   ar
    33    36    37   ar
    34    37    40    1
    35    40    41    1
    36    41    42    1
    37    41    43    1
    38    41    44    1
    39    37    38   ar
    40    38    39   ar
    41    18    13   ar
    42    39    27    1
    43    23    19   ar
    44    32    29    1
    45    39    34   ar
    46     7     8    1
    47     2     3    1
    48    25    26    1
@<TRIPOS>MOLECULE
*****
 44 48 0 0 0
SMALL
GASTEIGER

@<TRIPOS>ATOM
      1 C          61.6943   90.1942   12.1866 C.3     1  UNL1        0.1443
      2 O          61.8473   90.9597   10.9057 O.3     1  UNL1       -0.3813
      3 H          61.0238   90.9052   10.3961 H       1  UNL1        0.2105
      4 C          62.8344   90.1233   13.1587 C.3     1  UNL1        0.1041
      5 C          63.3700   88.9152   15.3956 C.2     1  UNL1        0.2527
      6 O          64.4484   88.1278   14.7121 O.2     1  UNL1       -0.2724
      7 N          62.5630   89.9129   14.6189 N.am    1  UNL1       -0.3012
      8 H          61.8552   90.4297   15.0674 H       1  UNL1        0.1495
      9 C          63.0986   88.7049   16.8558 C.3     1  UNL1        0.2269
     10 C          62.8624   86.1469   17.2445 C.3     1  UNL1        0.1748
     11 O          62.2828   87.5291   17.3052 O.3     1  UNL1       -0.3418
     12 C          64.2459   90.2626   12.6706 C.3     1  UNL1        0.0484
     13 C          65.0391   91.4896   13.0100 C.ar    1  UNL1       -0.0204
     14 C          65.5350   91.6986   14.4101 C.ar    1  UNL1       -0.0042
     15 C          66.3283   92.9256   14.7495 C.ar    1  UNL1       -0.0003
     16 C          66.6256   93.9437   13.6888 C.ar    1  UNL1        0.0005
     17 C          66.1296   93.7347   12.2886 C.ar    1  UNL1        0.0072
     18 C          65.3364   92.5077   11.9492 C.ar    1  UNL1       -0.0037
     19 C          66.4269   94.7528   11.2279 C.ar    1  UNL1        0.0500
     20 C          67.0858   94.4837    9.9075 C.ar    1  UNL1        0.1060
     21 N          67.1836   95.7832    9.1649 N.ar    1  UNL1       -0.2347
     22 C          66.5853   96.8555   10.0264 C.ar    1  UNL1        0.1345
     23 S          66.1176   96.2186   11.3014 S.2     1  UNL1       -0.0645
     24 C          60.4010   89.4997   12.4953 C.3     1  UNL1        0.1001
     25 N          60.1867   88.0825   12.0531 N.3     1  UNL1       -0.2928
     26 H          59.2088   87.8605   12.2398 H       1  UNL1        0.1236
     27 C          60.4553   87.6920   10.6299 C.3     1  UNL1        0.0849
     28 C          59.8082   88.4505    9.5092 C.3     1  UNL1        0.0604
     29 C          60.0769   88.0601    8.0861 C.3     1  UNL1        0.1363
     30 C          59.1357   89.2249    7.9981 C.3     1  UNL1        0.0402
     31 C          59.1617   89.1328    6.5011 C.3     1  UNL1        0.0072
     32 C          60.1028   87.9680    6.5891 C.3     1  UNL1        0.0402
     33 O          60.9926   86.9113    7.7836 O.3     1  UNL1       -0.4676
     34 C          61.6397   86.1528    8.9043 C.ar    1  UNL1        0.2216
     35 N          62.5554   85.0039    8.6018 N.ar    1  UNL1       -0.2107
     36 C          63.2025   84.2454    9.7225 C.ar    1  UNL1        0.0977
     37 C          62.9339   84.6358   11.1457 C.ar    1  UNL1       -0.0031
     38 C          62.0182   85.7847   11.4482 C.ar    1  UNL1       -0.0011
     39 C          61.3711   86.5432   10.3275 C.ar    1  UNL1        0.0449
     40 C          63.5810   83.8773   12.2664 C.3     1  UNL1        0.0279
     41 C          62.7655   82.9393   13.1062 C.3     1  UNL1        0.0041
     42 C          62.8077   83.9189   14.2413 C.3     1  UNL1        0.0003
     43 C          62.7234   81.9596   11.9710 C.3     1  UNL1        0.0003
     44 C          61.9501   82.0013   13.9460 C.3     1  UNL1        0.0003
@<TRIPOS>BOND
     1    10    11    1
     2    11     9    1
     3     9     5    1
     4     5     6    2
     5     5     7   am
     6     7     4    1
     7     4    12    1
     8    12    13    1
     9    13    14   ar
    10    14    15   ar
    11    15    16   ar
    12    16    17   ar
    13    17    19    1
    14    19    20   ar
    15    20    21   ar
    16    21    22   ar
    17    22    23   ar
    18    17    18   ar
    19     4     1    1
    20     1     2    1
    21     1    24    1
    22    24    25    1
    23    27    25    1
    24    27    28    1
    25    28    29    1
    26    29    30    1
    27    30    31    1
    28    31    32    1
    29    29    33    1
    30    33    34    1
    31    34    35   ar
    32    35    36   ar
    33    36    37   ar
    34    37    40    1
    35    40    41    1
    36    41    42    1
    37    41    43    1
    38    41    44    1
    39    37    38   ar
    40    38    39   ar
    41    18    13   ar
    42    39    27    1
    43    23    19   ar
    44    32    29    1
    45    39    34   ar
    46     7     8    1
    47     2     3    1
    48    25    26    1
