@<TRIPOS>MOLECULE
*****
 43 46 0 0 0
SMALL
GASTEIGER

@<TRIPOS>ATOM
      1 C          62.7364   89.0209   16.4426 C.3     1  UNL1        0.0038
      2 C          63.4157   87.6903   16.3092 C.3     1  UNL1        0.0474
      3 C          64.3678   87.4444   15.1764 C.3     1  UNL1        0.2071
      4 O          64.5915   86.0488   14.6741 O.3     1  UNL1       -0.4602
      5 C          63.8038   85.5375   13.5045 C.ar    1  UNL1        0.2248
      6 C          63.7358   84.0639   13.2328 C.ar    1  UNL1        0.0577
      7 C          62.9480   83.5525   12.0631 C.ar    1  UNL1        0.0061
      8 C          62.2284   84.5147   11.1653 C.ar    1  UNL1        0.0194
      9 C          62.2964   85.9883   11.4370 C.ar    1  UNL1        0.0844
     10 N          63.0841   86.4997   12.6066 N.ar    1  UNL1       -0.2117
     11 C          61.5767   86.9506   10.5391 C.ar    1  UNL1        0.0178
     12 C          60.8865   86.4514    9.3044 C.ar    1  UNL1        0.0015
     13 C          60.1668   87.4136    8.4066 C.ar    1  UNL1        0.0000
     14 C          60.1373   88.8750    8.7434 C.ar    1  UNL1        0.0000
     15 C          60.8275   89.3742    9.9781 C.ar    1  UNL1        0.0000
     16 C          61.5472   88.4120   10.8759 C.ar    1  UNL1        0.0015
     17 C          62.8800   82.0789   11.7914 C.ar    1  UNL1        0.0002
     18 C          62.5456   81.1263   12.9008 C.ar    1  UNL1        0.0000
     19 C          62.4775   79.6527   12.6291 C.ar    1  UNL1        0.0000
     20 C          62.7439   79.1317   11.2479 C.ar    1  UNL1        0.0000
     21 C          63.0783   80.0842   10.1385 C.ar    1  UNL1        0.0000
     22 C          63.1463   81.5578   10.4103 C.ar    1  UNL1        0.0000
     23 C          63.5471   90.2525   16.7181 C.3     1  UNL1        0.0005
     24 C          63.9116   91.1773   15.5947 C.3     1  UNL1        0.0047
     25 C          64.9679   90.7782   14.6073 C.3     1  UNL1        0.0261
     26 C          66.0181   92.6928   11.2935 C.ar    1  UNL1        0.1342
     27 C          64.8463   92.3896   10.4075 C.ar    1  UNL1        0.0365
     28 C          63.7151   91.5493   10.9214 C.ar    1  UNL1        0.0028
     29 C          63.7556   91.0121   12.3213 C.ar    1  UNL1       -0.0044
     30 C          64.9273   91.3153   13.2073 C.ar    1  UNL1       -0.0232
     31 C          66.0586   92.1557   12.6934 C.ar    1  UNL1        0.0082
     32 C          67.2304   92.4589   13.5795 C.3     1  UNL1        0.0350
     33 C          67.0806   93.4260   14.7163 C.3     1  UNL1        0.0465
     34 C          68.0549   93.4000   15.8564 C.2     1  UNL1        0.0507
     35 O          68.3234   92.1162   16.5844 O.co2   1  UNL1       -0.5492
     36 O          68.7607   94.6577   16.2687 O.co2   1  UNL1       -0.5492
     37 O          67.1493   93.5331   10.7796 O.3     1  UNL1       -0.4758
     38 C          67.2096   93.9024    9.3271 C.3     1  UNL1        0.2058
     39 C          67.6646   95.2725    8.9198 C.3     1  UNL1        0.0532
     40 C          67.2710   96.4673    9.7370 C.3     1  UNL1        0.0455
     41 O          64.6792   96.6480    9.7203 O.co2   1  UNL1       -0.5492
     42 C          65.9645   96.4744   10.4740 C.2     1  UNL1        0.0505
     43 O          65.9434   96.3080   11.9645 O.co2   1  UNL1       -0.5492
@<TRIPOS>UNITY_ATOM_ATTR
35 1
charge -1
41 1
charge -1
@<TRIPOS>BOND
     1    41    42   ar
     2    42    43   ar
     3    42    40    1
     4    40    39    1
     5    39    38    1
     6    38    37    1
     7    37    26    1
     8    26    27   ar
     9    27    28   ar
    10    28    29   ar
    11    29    30   ar
    12    30    25    1
    13    25    24    1
    14    24    23    1
    15    23     1    1
    16     1     2    1
    17     2     3    1
    18     3     4    1
    19     4     5    1
    20     5     6   ar
    21     6     7   ar
    22     7    17    1
    23    17    18   ar
    24    18    19   ar
    25    19    20   ar
    26    20    21   ar
    27    21    22   ar
    28     7     8   ar
    29     8     9   ar
    30     9    11    1
    31    11    12   ar
    32    12    13   ar
    33    13    14   ar
    34    14    15   ar
    35    15    16   ar
    36     9    10   ar
    37    30    31   ar
    38    31    32    1
    39    32    33    1
    40    33    34    1
    41    34    35   ar
    42    34    36   ar
    43    31    26   ar
    44    10     5   ar
    45    22    17   ar
    46    16    11   ar
@<TRIPOS>MOLECULE
*****
 43 46 0 0 0
SMALL
GASTEIGER

@<TRIPOS>ATOM
      1 C          64.5547   87.7709   14.7298 C.3     1  UNL1        0.0038
      2 C          64.9740   86.3608   15.0225 C.3     1  UNL1        0.0474
      3 C          64.2360   85.5572   16.0519 C.3     1  UNL1        0.2071
      4 O          63.4971   84.3164   15.6465 O.3     1  UNL1       -0.4602
      5 C          63.1237   84.1017   14.2097 C.ar    1  UNL1        0.2248
      6 C          63.1341   82.7180   13.6308 C.ar    1  UNL1        0.0577
      7 C          62.7607   82.5033   12.1939 C.ar    1  UNL1        0.0061
      8 C          62.3768   83.6723   11.3360 C.ar    1  UNL1        0.0194
      9 C          62.3663   85.0561   11.9150 C.ar    1  UNL1        0.0844
     10 N          62.7397   85.2708   13.3517 N.ar    1  UNL1       -0.2117
     11 C          61.9824   86.2251   11.0570 C.ar    1  UNL1        0.0178
     12 C          62.3544   87.6167   11.4755 C.ar    1  UNL1        0.0015
     13 C          61.9705   88.7857   10.6175 C.ar    1  UNL1        0.0000
     14 C          61.2146   88.5631    9.3412 C.ar    1  UNL1        0.0000
     15 C          60.8426   87.1715    8.9227 C.ar    1  UNL1        0.0000
     16 C          61.2265   86.0025    9.7807 C.ar    1  UNL1        0.0015
     17 C          62.7711   81.1196   11.6149 C.ar    1  UNL1        0.0002
     18 C          63.0560   80.9192   10.1559 C.ar    1  UNL1        0.0000
     19 C          63.0665   79.5354    9.5770 C.ar    1  UNL1        0.0000
     20 C          62.7921   78.3521   10.4571 C.ar    1  UNL1        0.0000
     21 C          62.5072   78.5526   11.9160 C.ar    1  UNL1        0.0000
     22 C          62.4967   79.9363   12.4950 C.ar    1  UNL1        0.0000
     23 C          63.4472   88.4032   15.5194 C.3     1  UNL1        0.0005
     24 C          63.2514   89.8899   15.4790 C.3     1  UNL1        0.0047
     25 C          64.4183   90.7930   15.2100 C.3     1  UNL1        0.0261
     26 C          65.8002   93.0564   12.2575 C.ar    1  UNL1        0.1342
     27 C          65.0467   92.4909   11.0903 C.ar    1  UNL1        0.0365
     28 C          64.0837   91.3595   11.2963 C.ar    1  UNL1        0.0028
     29 C          63.8743   90.7935   12.6695 C.ar    1  UNL1       -0.0044
     30 C          64.6278   91.3590   13.8367 C.ar    1  UNL1       -0.0232
     31 C          65.5908   92.4905   13.6307 C.ar    1  UNL1        0.0082
     32 C          66.3443   93.0560   14.7980 C.3     1  UNL1        0.0350
     33 C          67.5539   92.3433   15.3262 C.3     1  UNL1        0.0465
     34 C          68.9157   92.9476   15.1528 C.2     1  UNL1        0.0507
     35 O          69.3610   94.0633   16.0512 O.co2   1  UNL1       -0.5492
     36 O          69.8323   92.4363   14.0812 O.co2   1  UNL1       -0.5492
     37 O          66.7632   94.1879   12.0515 O.3     1  UNL1       -0.4758
     38 C          66.5580   95.1508   10.9198 C.3     1  UNL1        0.2058
     39 C          67.4723   95.1170    9.7312 C.3     1  UNL1        0.0532
     40 C          67.4738   93.9256    8.8197 C.3     1  UNL1        0.0455
     41 O          68.6689   92.3756   10.5283 O.co2   1  UNL1       -0.5492
     42 C          68.3740   92.7611    9.1090 C.2     1  UNL1        0.0505
     43 O          68.9792   91.9822    7.9790 O.co2   1  UNL1       -0.5492
@<TRIPOS>UNITY_ATOM_ATTR
35 1
charge -1
41 1
charge -1
@<TRIPOS>BOND
     1    41    42   ar
     2    42    43   ar
     3    42    40    1
     4    40    39    1
     5    39    38    1
     6    38    37    1
     7    37    26    1
     8    26    27   ar
     9    27    28   ar
    10    28    29   ar
    11    29    30   ar
    12    30    25    1
    13    25    24    1
    14    24    23    1
    15    23     1    1
    16     1     2    1
    17     2     3    1
    18     3     4    1
    19     4     5    1
    20     5     6   ar
    21     6     7   ar
    22     7    17    1
    23    17    18   ar
    24    18    19   ar
    25    19    20   ar
    26    20    21   ar
    27    21    22   ar
    28     7     8   ar
    29     8     9   ar
    30     9    11    1
    31    11    12   ar
    32    12    13   ar
    33    13    14   ar
    34    14    15   ar
    35    15    16   ar
    36     9    10   ar
    37    30    31   ar
    38    31    32    1
    39    32    33    1
    40    33    34    1
    41    34    35   ar
    42    34    36   ar
    43    31    26   ar
    44    10     5   ar
    45    22    17   ar
    46    16    11   ar
@<TRIPOS>MOLECULE
*****
 43 46 0 0 0
SMALL
GASTEIGER

@<TRIPOS>ATOM
      1 C          59.6714   90.0512   10.5699 C.3     1  UNL1        0.0038
      2 C          60.8862   90.4509   11.3537 C.3     1  UNL1        0.0474
      3 C          62.2396   90.4197   10.7075 C.3     1  UNL1        0.2071
      4 O          63.3455   91.2811   11.2411 O.3     1  UNL1       -0.4602
      5 C          64.0485   90.8986   12.5098 C.ar    1  UNL1        0.2248
      6 C          63.6564   89.6462   13.2362 C.ar    1  UNL1        0.0577
      7 C          64.3594   89.2638   14.5049 C.ar    1  UNL1        0.0061
      8 C          65.4545   90.1337   15.0471 C.ar    1  UNL1        0.0194
      9 C          65.8466   91.3861   14.3207 C.ar    1  UNL1        0.0844
     10 N          65.1436   91.7686   13.0520 N.ar    1  UNL1       -0.2117
     11 C          66.9417   92.2560   14.8629 C.ar    1  UNL1        0.0178
     12 C          68.0650   91.6459   15.6477 C.ar    1  UNL1        0.0015
     13 C          69.1601   92.5159   16.1899 C.ar    1  UNL1        0.0000
     14 C          69.1319   93.9958   15.9473 C.ar    1  UNL1        0.0000
     15 C          68.0086   94.6059   15.1625 C.ar    1  UNL1        0.0000
     16 C          66.9135   93.7360   14.6203 C.ar    1  UNL1        0.0015
     17 C          63.9673   88.0114   15.2314 C.ar    1  UNL1        0.0002
     18 C          64.3591   86.6717   14.6819 C.ar    1  UNL1        0.0000
     19 C          63.9670   85.4193   15.4083 C.ar    1  UNL1        0.0000
     20 C          63.1831   85.5065   16.6843 C.ar    1  UNL1        0.0000
     21 C          62.7913   86.8462   17.2337 C.ar    1  UNL1        0.0000
     22 C          63.1834   88.0986   16.5073 C.ar    1  UNL1        0.0000
     23 C          59.8096   89.6233    9.1389 C.3     1  UNL1        0.0005
     24 C          59.8984   88.1654    8.7971 C.3     1  UNL1        0.0047
     25 C          61.2394   87.5071    8.6619 C.3     1  UNL1        0.0261
     26 C          63.1780   84.5404   10.4481 C.ar    1  UNL1        0.1342
     27 C          62.7006   84.6999   11.8610 C.ar    1  UNL1        0.0365
     28 C          61.7361   85.7952   12.2077 C.ar    1  UNL1        0.0028
     29 C          61.2490   86.7309   11.1414 C.ar    1  UNL1       -0.0044
     30 C          61.7265   86.5714    9.7284 C.ar    1  UNL1       -0.0232
     31 C          62.6910   85.4761    9.3817 C.ar    1  UNL1        0.0082
     32 C          63.1684   85.3166    7.9686 C.3     1  UNL1        0.0350
     33 C          62.6124   84.2208    7.1084 C.3     1  UNL1        0.0465
     34 C          61.3916   84.4692    6.2731 C.2     1  UNL1        0.0507
     35 O          61.3848   84.0872    4.8225 O.co2   1  UNL1       -0.5492
     36 O          60.1775   85.0998    6.8883 O.co2   1  UNL1       -0.5492
     37 O          64.1425   83.4451   10.1014 O.3     1  UNL1       -0.4758
     38 C          64.2091   82.2087   10.9480 C.3     1  UNL1        0.2058
     39 C          62.9756   81.3848   11.1705 C.3     1  UNL1        0.0532
     40 C          62.8304   80.5757   12.4253 C.3     1  UNL1        0.0455
     41 O          63.3305   82.0569   14.5004 O.co2   1  UNL1       -0.5492
     42 C          62.3714   81.2334   13.6929 C.2     1  UNL1        0.0505
     43 O          60.9534   81.0676   14.1529 O.co2   1  UNL1       -0.5492
@<TRIPOS>UNITY_ATOM_ATTR
35 1
charge -1
41 1
charge -1
@<TRIPOS>BOND
     1    41    42   ar
     2    42    43   ar
     3    42    40    1
     4    40    39    1
     5    39    38    1
     6    38    37    1
     7    37    26    1
     8    26    27   ar
     9    27    28   ar
    10    28    29   ar
    11    29    30   ar
    12    30    25    1
    13    25    24    1
    14    24    23    1
    15    23     1    1
    16     1     2    1
    17     2     3    1
    18     3     4    1
    19     4     5    1
    20     5     6   ar
    21     6     7   ar
    22     7    17    1
    23    17    18   ar
    24    18    19   ar
    25    19    20   ar
    26    20    21   ar
    27    21    22   ar
    28     7     8   ar
    29     8     9   ar
    30     9    11    1
    31    11    12   ar
    32    12    13   ar
    33    13    14   ar
    34    14    15   ar
    35    15    16   ar
    36     9    10   ar
    37    30    31   ar
    38    31    32    1
    39    32    33    1
    40    33    34    1
    41    34    35   ar
    42    34    36   ar
    43    31    26   ar
    44    10     5   ar
    45    22    17   ar
    46    16    11   ar
@<TRIPOS>MOLECULE
*****
 43 46 0 0 0
SMALL
GASTEIGER

@<TRIPOS>ATOM
      1 C          63.1798   88.5914   15.5934 C.3     1  UNL1        0.0038
      2 C          63.5303   89.6907   16.5518 C.3     1  UNL1        0.0474
      3 C          63.6539   91.1027   16.0609 C.3     1  UNL1        0.2071
      4 O          64.7977   91.4900   15.1712 O.3     1  UNL1       -0.4602
      5 C          64.5907   91.6030   13.6899 C.ar    1  UNL1        0.2248
      6 C          63.5522   90.7598   13.0113 C.ar    1  UNL1        0.0577
      7 C          63.3451   90.8728   11.5299 C.ar    1  UNL1        0.0061
      8 C          64.1766   91.8290   10.7272 C.ar    1  UNL1        0.0194
      9 C          65.2151   92.6722   11.4058 C.ar    1  UNL1        0.0844
     10 N          65.4221   92.5592   12.8871 N.ar    1  UNL1       -0.2117
     11 C          66.0466   93.6284   10.6030 C.ar    1  UNL1        0.0178
     12 C          67.1552   93.1119    9.7347 C.ar    1  UNL1        0.0015
     13 C          67.9866   94.0682    8.9320 C.ar    1  UNL1        0.0000
     14 C          67.7094   95.5408    8.9976 C.ar    1  UNL1        0.0000
     15 C          66.6007   96.0573    9.8660 C.ar    1  UNL1        0.0000
     16 C          65.7693   95.1011   10.6687 C.ar    1  UNL1        0.0015
     17 C          62.3066   90.0296   10.8513 C.ar    1  UNL1        0.0002
     18 C          62.6933   88.7216   10.2270 C.ar    1  UNL1        0.0000
     19 C          61.6548   87.8784    9.5484 C.ar    1  UNL1        0.0000
     20 C          60.2296   88.3432    9.4940 C.ar    1  UNL1        0.0000
     21 C          59.8430   89.6512   10.1183 C.ar    1  UNL1        0.0000
     22 C          60.8815   90.4944   10.7969 C.ar    1  UNL1        0.0000
     23 C          64.2669   87.8420   14.8817 C.3     1  UNL1        0.0005
     24 C          64.0434   87.3434   13.4846 C.3     1  UNL1        0.0047
     25 C          62.9300   86.3791   13.2016 C.3     1  UNL1        0.0261
     26 C          63.8937   82.5807   12.5741 C.ar    1  UNL1        0.1342
     27 C          63.7929   82.5059   11.0794 C.ar    1  UNL1        0.0365
     28 C          63.4045   83.7221   10.2920 C.ar    1  UNL1        0.0028
     29 C          63.1169   85.0132   10.9994 C.ar    1  UNL1       -0.0044
     30 C          63.2176   85.0880   12.4941 C.ar    1  UNL1       -0.0232
     31 C          63.6060   83.8717   13.2814 C.ar    1  UNL1        0.0082
     32 C          63.7068   83.9466   14.7762 C.3     1  UNL1        0.0350
     33 C          62.4669   84.1114   15.6042 C.3     1  UNL1        0.0465
     34 C          62.3565   85.2534   16.5703 C.2     1  UNL1        0.0507
     35 O          63.5603   85.6976   17.3473 O.co2   1  UNL1       -0.5492
     36 O          61.0423   85.9514   16.7595 O.co2   1  UNL1       -0.5492
     37 O          64.2821   81.3645   13.3614 O.3     1  UNL1       -0.4758
     38 C          63.2224   80.4496   13.8999 C.3     1  UNL1        0.2058
     39 C          61.8205   80.5336   13.3729 C.3     1  UNL1        0.0532
     40 C          60.6965   80.9173   14.2892 C.3     1  UNL1        0.0455
     41 O          59.1967   78.8045   14.4809 O.co2   1  UNL1       -0.5492
     42 C          59.3562   80.2586   14.1487 C.2     1  UNL1        0.0505
     43 O          58.1756   81.0539   13.6760 O.co2   1  UNL1       -0.5492
@<TRIPOS>UNITY_ATOM_ATTR
35 1
charge -1
41 1
charge -1
@<TRIPOS>BOND
     1    41    42   ar
     2    42    43   ar
     3    42    40    1
     4    40    39    1
     5    39    38    1
     6    38    37    1
     7    37    26    1
     8    26    27   ar
     9    27    28   ar
    10    28    29   ar
    11    29    30   ar
    12    30    25    1
    13    25    24    1
    14    24    23    1
    15    23     1    1
    16     1     2    1
    17     2     3    1
    18     3     4    1
    19     4     5    1
    20     5     6   ar
    21     6     7   ar
    22     7    17    1
    23    17    18   ar
    24    18    19   ar
    25    19    20   ar
    26    20    21   ar
    27    21    22   ar
    28     7     8   ar
    29     8     9   ar
    30     9    11    1
    31    11    12   ar
    32    12    13   ar
    33    13    14   ar
    34    14    15   ar
    35    15    16   ar
    36     9    10   ar
    37    30    31   ar
    38    31    32    1
    39    32    33    1
    40    33    34    1
    41    34    35   ar
    42    34    36   ar
    43    31    26   ar
    44    10     5   ar
    45    22    17   ar
    46    16    11   ar
@<TRIPOS>MOLECULE
*****
 43 46 0 0 0
SMALL
GASTEIGER

@<TRIPOS>ATOM
      1 C          59.5322   90.1370    5.7364 C.3     1  UNL1        0.0038
      2 C          58.5413   91.2082    5.3893 C.3     1  UNL1        0.0474
      3 C          58.7355   92.0383    4.1550 C.3     1  UNL1        0.2071
      4 O          60.1092   92.5039    3.7728 O.3     1  UNL1       -0.4602
      5 C          60.3743   92.9948    2.3804 C.ar    1  UNL1        0.2248
      6 C          61.6356   93.7482    2.0783 C.ar    1  UNL1        0.0577
      7 C          61.9007   94.2391    0.6858 C.ar    1  UNL1        0.0061
      8 C          60.9045   93.9764   -0.4044 C.ar    1  UNL1        0.0194
      9 C          59.6432   93.2230   -0.1022 C.ar    1  UNL1        0.0844
     10 N          59.3781   92.7321    1.2902 N.ar    1  UNL1       -0.2117
     11 C          58.6470   92.9603   -1.1925 C.ar    1  UNL1        0.0178
     12 C          57.2225   92.6428   -0.8462 C.ar    1  UNL1        0.0015
     13 C          56.2263   92.3802   -1.9365 C.ar    1  UNL1        0.0000
     14 C          56.6547   92.4351   -3.3730 C.ar    1  UNL1        0.0000
     15 C          58.0792   92.7526   -3.7192 C.ar    1  UNL1        0.0000
     16 C          59.0753   93.0152   -2.6290 C.ar    1  UNL1        0.0015
     17 C          63.1620   94.9926    0.3836 C.ar    1  UNL1        0.0002
     18 C          63.8581   95.7566    1.4708 C.ar    1  UNL1        0.0000
     19 C          65.1194   96.5101    1.1687 C.ar    1  UNL1        0.0000
     20 C          65.6847   96.4996   -0.2208 C.ar    1  UNL1        0.0000
     21 C          64.9887   95.7357   -1.3079 C.ar    1  UNL1        0.0000
     22 C          63.7273   94.9822   -1.0057 C.ar    1  UNL1        0.0000
     23 C          59.4121   89.3966    7.0353 C.3     1  UNL1        0.0005
     24 C          59.0365   87.9444    7.0389 C.3     1  UNL1        0.0047
     25 C          59.2217   87.1248    8.2814 C.3     1  UNL1        0.0261
     26 C          62.4354   85.6705   10.0999 C.ar    1  UNL1        0.1342
     27 C          63.0872   84.9269    8.9719 C.ar    1  UNL1        0.0365
     28 C          62.4504   84.9159    7.6138 C.ar    1  UNL1        0.0028
     29 C          61.1619   85.6485    7.3837 C.ar    1  UNL1       -0.0044
     30 C          60.5102   86.3922    8.5116 C.ar    1  UNL1       -0.0232
     31 C          61.1470   86.4031    9.8697 C.ar    1  UNL1        0.0082
     32 C          60.4952   87.1468   10.9976 C.3     1  UNL1        0.0350
     33 C          60.6880   88.6285   11.1295 C.3     1  UNL1        0.0465
     34 C          59.6293   89.4675   11.7816 C.2     1  UNL1        0.0507
     35 O          59.3458   90.8486   11.2696 O.co2   1  UNL1       -0.5492
     36 O          58.8541   88.9254   12.9458 O.co2   1  UNL1       -0.5492
     37 O          63.0722   85.6815   11.4580 O.3     1  UNL1       -0.4758
     38 C          62.9434   84.4872   12.3563 C.3     1  UNL1        0.2058
     39 C          63.3535   83.1308   11.8643 C.3     1  UNL1        0.0532
     40 C          62.5641   81.9187   12.2614 C.3     1  UNL1        0.0455
     41 O          60.9657   81.2279   14.1897 O.co2   1  UNL1       -0.5492
     42 C          62.3339   81.6159   13.7124 C.2     1  UNL1        0.0505
     43 O          63.4717   81.7011   14.6861 O.co2   1  UNL1       -0.5492
@<TRIPOS>UNITY_ATOM_ATTR
35 1
charge -1
41 1
charge -1
@<TRIPOS>BOND
     1    41    42   ar
     2    42    43   ar
     3    42    40    1
     4    40    39    1
     5    39    38    1
     6    38    37    1
     7    37    26    1
     8    26    27   ar
     9    27    28   ar
    10    28    29   ar
    11    29    30   ar
    12    30    25    1
    13    25    24    1
    14    24    23    1
    15    23     1    1
    16     1     2    1
    17     2     3    1
    18     3     4    1
    19     4     5    1
    20     5     6   ar
    21     6     7   ar
    22     7    17    1
    23    17    18   ar
    24    18    19   ar
    25    19    20   ar
    26    20    21   ar
    27    21    22   ar
    28     7     8   ar
    29     8     9   ar
    30     9    11    1
    31    11    12   ar
    32    12    13   ar
    33    13    14   ar
    34    14    15   ar
    35    15    16   ar
    36     9    10   ar
    37    30    31   ar
    38    31    32    1
    39    32    33    1
    40    33    34    1
    41    34    35   ar
    42    34    36   ar
    43    31    26   ar
    44    10     5   ar
    45    22    17   ar
    46    16    11   ar
@<TRIPOS>MOLECULE
*****
 43 46 0 0 0
SMALL
GASTEIGER

@<TRIPOS>ATOM
      1 C          61.4095   89.8158    8.4620 C.3     1  UNL1        0.0038
      2 C          62.2291   89.6374    9.7055 C.3     1  UNL1        0.0474
      3 C          63.0051   90.7929   10.2647 C.3     1  UNL1        0.2071
      4 O          62.7253   91.2816   11.6549 O.3     1  UNL1       -0.4602
      5 C          63.5916   90.8353   12.7952 C.ar    1  UNL1        0.2248
      6 C          64.8257   91.6116   13.1481 C.ar    1  UNL1        0.0577
      7 C          65.6920   91.1652   14.2884 C.ar    1  UNL1        0.0061
      8 C          65.3242   89.9427   15.0759 C.ar    1  UNL1        0.0194
      9 C          64.0902   89.1665   14.7230 C.ar    1  UNL1        0.0844
     10 N          63.2239   89.6128   13.5827 N.ar    1  UNL1       -0.2117
     11 C          63.7224   87.9439   15.5106 C.ar    1  UNL1        0.0178
     12 C          62.9728   88.0814   16.8025 C.ar    1  UNL1        0.0015
     13 C          62.6051   86.8588   17.5899 C.ar    1  UNL1        0.0000
     14 C          62.9869   85.4988   17.0854 C.ar    1  UNL1        0.0000
     15 C          63.7365   85.3613   15.7935 C.ar    1  UNL1        0.0000
     16 C          64.1042   86.5839   15.0060 C.ar    1  UNL1        0.0015
     17 C          66.9261   91.9414   14.6413 C.ar    1  UNL1        0.0002
     18 C          66.8995   92.9141   15.7829 C.ar    1  UNL1        0.0000
     19 C          68.1336   93.6904   16.1357 C.ar    1  UNL1        0.0000
     20 C          69.3943   93.4939   15.3470 C.ar    1  UNL1        0.0000
     21 C          69.4209   92.5213   14.2054 C.ar    1  UNL1        0.0000
     22 C          68.1868   91.7450   13.8526 C.ar    1  UNL1        0.0000
     23 C          59.9439   89.4971    8.4775 C.3     1  UNL1        0.0005
     24 C          59.4147   88.3607    7.6536 C.3     1  UNL1        0.0047
     25 C          59.3805   86.9736    8.2232 C.3     1  UNL1        0.0261
     26 C          62.3932   85.5024   10.3468 C.ar    1  UNL1        0.1342
     27 C          63.2218   84.8740    9.2658 C.ar    1  UNL1        0.0365
     28 C          62.7699   84.9455    7.8372 C.ar    1  UNL1        0.0028
     29 C          61.4895   85.6453    7.4897 C.ar    1  UNL1       -0.0044
     30 C          60.6610   86.2737    8.5707 C.ar    1  UNL1       -0.0232
     31 C          61.1129   86.2022    9.9993 C.ar    1  UNL1        0.0082
     32 C          60.2843   86.8306   11.0803 C.3     1  UNL1        0.0350
     33 C          60.6365   88.1934   11.5987 C.3     1  UNL1        0.0465
     34 C          59.5670   89.0802   12.1642 C.2     1  UNL1        0.0507
     35 O          58.6627   88.5684   13.2461 O.co2   1  UNL1       -0.5492
     36 O          59.4018   90.4788   11.6479 O.co2   1  UNL1       -0.5492
     37 O          62.8451   85.4309   11.7753 O.3     1  UNL1       -0.4758
     38 C          62.6227   84.1787   12.5705 C.3     1  UNL1        0.2058
     39 C          63.3652   82.9241   12.2173 C.3     1  UNL1        0.0532
     40 C          62.6764   81.5945   12.3070 C.3     1  UNL1        0.0455
     41 O          63.4345   80.2850   14.4190 O.co2   1  UNL1       -0.5492
     42 C          62.3646   81.0004   13.6485 C.2     1  UNL1        0.0505
     43 O          60.9829   81.1216   14.2196 O.co2   1  UNL1       -0.5492
@<TRIPOS>UNITY_ATOM_ATTR
35 1
charge -1
41 1
charge -1
@<TRIPOS>BOND
     1    41    42   ar
     2    42    43   ar
     3    42    40    1
     4    40    39    1
     5    39    38    1
     6    38    37    1
     7    37    26    1
     8    26    27   ar
     9    27    28   ar
    10    28    29   ar
    11    29    30   ar
    12    30    25    1
    13    25    24    1
    14    24    23    1
    15    23     1    1
    16     1     2    1
    17     2     3    1
    18     3     4    1
    19     4     5    1
    20     5     6   ar
    21     6     7   ar
    22     7    17    1
    23    17    18   ar
    24    18    19   ar
    25    19    20   ar
    26    20    21   ar
    27    21    22   ar
    28     7     8   ar
    29     8     9   ar
    30     9    11    1
    31    11    12   ar
    32    12    13   ar
    33    13    14   ar
    34    14    15   ar
    35    15    16   ar
    36     9    10   ar
    37    30    31   ar
    38    31    32    1
    39    32    33    1
    40    33    34    1
    41    34    35   ar
    42    34    36   ar
    43    31    26   ar
    44    10     5   ar
    45    22    17   ar
    46    16    11   ar
@<TRIPOS>MOLECULE
*****
 43 46 0 0 0
SMALL
GASTEIGER

@<TRIPOS>ATOM
      1 C          64.3049   87.4657   14.9844 C.3     1  UNL1        0.0038
      2 C          64.6974   88.9131   14.9544 C.3     1  UNL1        0.0474
      3 C          63.7796   89.9512   15.5291 C.3     1  UNL1        0.2071
      4 O          63.4942   91.2077   14.7612 O.3     1  UNL1       -0.4602
      5 C          63.6286   91.2207   13.2674 C.ar    1  UNL1        0.2248
      6 C          64.6675   92.0841   12.6153 C.ar    1  UNL1        0.0577
      7 C          64.8019   92.0970   11.1213 C.ar    1  UNL1        0.0061
      8 C          63.8975   91.2465   10.2795 C.ar    1  UNL1        0.0194
      9 C          62.8586   90.3831   10.9316 C.ar    1  UNL1        0.0844
     10 N          62.7242   90.3702   12.4255 N.ar    1  UNL1       -0.2117
     11 C          61.9541   89.5326   10.0898 C.ar    1  UNL1        0.0178
     12 C          60.6797   90.1053    9.5441 C.ar    1  UNL1        0.0015
     13 C          59.7753   89.2548    8.7023 C.ar    1  UNL1        0.0000
     14 C          60.1453   87.8316    8.4062 C.ar    1  UNL1        0.0000
     15 C          61.4197   87.2589    8.9519 C.ar    1  UNL1        0.0000
     16 C          62.3241   88.1094    9.7937 C.ar    1  UNL1        0.0015
     17 C          65.8408   92.9604   10.4692 C.ar    1  UNL1        0.0002
     18 C          65.5766   94.4218   10.2579 C.ar    1  UNL1        0.0000
     19 C          66.6155   95.2852    9.6058 C.ar    1  UNL1        0.0000
     20 C          67.9186   94.6872    9.1650 C.ar    1  UNL1        0.0000
     21 C          68.1828   93.2258    9.3762 C.ar    1  UNL1        0.0000
     22 C          67.1439   92.3624   10.0283 C.ar    1  UNL1        0.0000
     23 C          64.2251   86.6837   13.7069 C.3     1  UNL1        0.0005
     24 C          63.1005   86.9304   12.7454 C.3     1  UNL1        0.0047
     25 C          62.2075   85.7992   12.3296 C.3     1  UNL1        0.0261
     26 C          63.4303   82.0303   12.1058 C.ar    1  UNL1        0.1342
     27 C          63.9949   81.9975   10.7166 C.ar    1  UNL1        0.0365
     28 C          63.9638   83.2320    9.8650 C.ar    1  UNL1        0.0028
     29 C          63.3680   84.4992   10.4026 C.ar    1  UNL1       -0.0044
     30 C          62.8033   84.5320   11.7919 C.ar    1  UNL1       -0.0232
     31 C          62.8344   83.2975   12.6434 C.ar    1  UNL1        0.0082
     32 C          62.2697   83.3304   14.0327 C.3     1  UNL1        0.0350
     33 C          63.1188   83.8001   15.1766 C.3     1  UNL1        0.0465
     34 C          62.5821   84.8153   16.1416 C.2     1  UNL1        0.0507
     35 O          63.4803   85.4015   17.1903 O.co2   1  UNL1       -0.5492
     36 O          61.1472   85.2443   16.0580 O.co2   1  UNL1       -0.5492
     37 O          63.4614   80.7959   12.9574 O.3     1  UNL1       -0.4758
     38 C          62.2593   79.9012   13.0255 C.3     1  UNL1        0.2058
     39 C          61.3776   79.9209   14.2388 C.3     1  UNL1        0.0532
     40 C          59.9890   80.4810   14.1478 C.3     1  UNL1        0.0455
     41 O          58.7994   78.1860   14.4088 O.co2   1  UNL1       -0.5492
     42 C          58.8205   79.6703   14.6248 C.2     1  UNL1        0.0505
     43 O          57.6733   80.3438   15.3177 O.co2   1  UNL1       -0.5492
@<TRIPOS>UNITY_ATOM_ATTR
35 1
charge -1
41 1
charge -1
@<TRIPOS>BOND
     1    41    42   ar
     2    42    43   ar
     3    42    40    1
     4    40    39    1
     5    39    38    1
     6    38    37    1
     7    37    26    1
     8    26    27   ar
     9    27    28   ar
    10    28    29   ar
    11    29    30   ar
    12    30    25    1
    13    25    24    1
    14    24    23    1
    15    23     1    1
    16     1     2    1
    17     2     3    1
    18     3     4    1
    19     4     5    1
    20     5     6   ar
    21     6     7   ar
    22     7    17    1
    23    17    18   ar
    24    18    19   ar
    25    19    20   ar
    26    20    21   ar
    27    21    22   ar
    28     7     8   ar
    29     8     9   ar
    30     9    11    1
    31    11    12   ar
    32    12    13   ar
    33    13    14   ar
    34    14    15   ar
    35    15    16   ar
    36     9    10   ar
    37    30    31   ar
    38    31    32    1
    39    32    33    1
    40    33    34    1
    41    34    35   ar
    42    34    36   ar
    43    31    26   ar
    44    10     5   ar
    45    22    17   ar
    46    16    11   ar
@<TRIPOS>MOLECULE
*****
 43 46 0 0 0
SMALL
GASTEIGER

@<TRIPOS>ATOM
      1 C          59.7232   90.1523    5.7462 C.3     1  UNL1        0.0038
      2 C          58.6560   91.1556    5.4231 C.3     1  UNL1        0.0474
      3 C          58.7419   91.9620    4.1611 C.3     1  UNL1        0.2071
      4 O          59.9759   92.7614    3.8645 O.3     1  UNL1       -0.4602
      5 C          60.2892   93.1613    2.4532 C.ar    1  UNL1        0.2248
      6 C          59.3223   92.8435    1.3514 C.ar    1  UNL1        0.0577
      7 C          59.6357   93.2434   -0.0600 C.ar    1  UNL1        0.0061
      8 C          60.9159   93.9611   -0.3695 C.ar    1  UNL1        0.0194
      9 C          61.8829   94.2789    0.7323 C.ar    1  UNL1        0.0844
     10 N          61.5696   93.8790    2.1436 N.ar    1  UNL1       -0.2117
     11 C          63.1632   94.9966    0.4227 C.ar    1  UNL1        0.0178
     12 C          63.8987   95.7214    1.5107 C.ar    1  UNL1        0.0015
     13 C          65.1789   96.4391    1.2011 C.ar    1  UNL1        0.0000
     14 C          65.7237   96.4319   -0.1965 C.ar    1  UNL1        0.0000
     15 C          64.9882   95.7071   -1.2844 C.ar    1  UNL1        0.0000
     16 C          63.7080   94.9895   -0.9748 C.ar    1  UNL1        0.0015
     17 C          58.6687   92.9257   -1.1618 C.ar    1  UNL1        0.0002
     18 C          59.0956   93.0527   -2.5942 C.ar    1  UNL1        0.0000
     19 C          58.1287   92.7349   -3.6960 C.ar    1  UNL1        0.0000
     20 C          56.7348   92.2901   -3.3655 C.ar    1  UNL1        0.0000
     21 C          56.3079   92.1630   -1.9331 C.ar    1  UNL1        0.0000
     22 C          57.2749   92.4808   -0.8313 C.ar    1  UNL1        0.0000
     23 C          59.6530   89.3675    7.0225 C.3     1  UNL1        0.0005
     24 C          58.8559   88.0980    7.0796 C.3     1  UNL1        0.0047
     25 C          59.0690   87.1285    8.2040 C.3     1  UNL1        0.0261
     26 C          62.4141   85.6439    9.7391 C.ar    1  UNL1        0.1342
     27 C          62.9690   84.9108    8.5540 C.ar    1  UNL1        0.0365
     28 C          62.2239   84.9170    7.2521 C.ar    1  UNL1        0.0028
     29 C          60.9239   85.6562    7.1355 C.ar    1  UNL1       -0.0044
     30 C          60.3691   86.3892    8.3206 C.ar    1  UNL1       -0.0232
     31 C          61.1142   86.3831    9.6225 C.ar    1  UNL1        0.0082
     32 C          60.5592   87.1162   10.8077 C.3     1  UNL1        0.0350
     33 C          61.0159   88.5134   11.1065 C.3     1  UNL1        0.0465
     34 C          60.0301   89.5393   11.5816 C.2     1  UNL1        0.0507
     35 O          59.3827   89.3908   12.9265 O.co2   1  UNL1       -0.5492
     36 O          59.6917   90.7136   10.7118 O.co2   1  UNL1       -0.5492
     37 O          63.1592   85.6378   11.0410 O.3     1  UNL1       -0.4758
     38 C          62.9338   84.5319   12.0289 C.3     1  UNL1        0.2058
     39 C          63.6782   83.2373   11.8883 C.3     1  UNL1        0.0532
     40 C          62.9315   81.9365   11.9106 C.3     1  UNL1        0.0455
     41 O          62.1905   79.7937   13.1793 O.co2   1  UNL1       -0.5492
     42 C          62.8413   81.1452   13.1817 C.2     1  UNL1        0.0505
     43 O          63.4017   81.7054   14.4553 O.co2   1  UNL1       -0.5492
@<TRIPOS>UNITY_ATOM_ATTR
35 1
charge -1
41 1
charge -1
@<TRIPOS>BOND
     1    41    42   ar
     2    42    43   ar
     3    42    40    1
     4    40    39    1
     5    39    38    1
     6    38    37    1
     7    37    26    1
     8    26    27   ar
     9    27    28   ar
    10    28    29   ar
    11    29    30   ar
    12    30    25    1
    13    25    24    1
    14    24    23    1
    15    23     1    1
    16     1     2    1
    17     2     3    1
    18     3     4    1
    19     4     5    1
    20     5     6   ar
    21     6     7   ar
    22     7    17    1
    23    17    18   ar
    24    18    19   ar
    25    19    20   ar
    26    20    21   ar
    27    21    22   ar
    28     7     8   ar
    29     8     9   ar
    30     9    11    1
    31    11    12   ar
    32    12    13   ar
    33    13    14   ar
    34    14    15   ar
    35    15    16   ar
    36     9    10   ar
    37    30    31   ar
    38    31    32    1
    39    32    33    1
    40    33    34    1
    41    34    35   ar
    42    34    36   ar
    43    31    26   ar
    44    10     5   ar
    45    22    17   ar
    46    16    11   ar
@<TRIPOS>MOLECULE
*****
 43 46 0 0 0
SMALL
GASTEIGER

@<TRIPOS>ATOM
      1 C          60.5834   89.5060    9.9206 C.3     1  UNL1        0.0038
      2 C          62.0440   89.3297   10.2132 C.3     1  UNL1        0.0474
      3 C          62.9261   90.5316   10.3788 C.3     1  UNL1        0.2071
      4 O          62.8714   91.3332   11.6455 O.3     1  UNL1       -0.4602
      5 C          63.7098   90.9328   12.8231 C.ar    1  UNL1        0.2248
      6 C          64.9647   91.6899   13.1425 C.ar    1  UNL1        0.0577
      7 C          65.8030   91.2895   14.3202 C.ar    1  UNL1        0.0061
      8 C          65.3864   90.1320   15.1785 C.ar    1  UNL1        0.0194
      9 C          64.1315   89.3749   14.8591 C.ar    1  UNL1        0.0844
     10 N          63.2932   89.7753   13.6815 N.ar    1  UNL1       -0.2117
     11 C          63.7149   88.2174   15.7175 C.ar    1  UNL1        0.0178
     12 C          64.1862   86.8319   15.3885 C.ar    1  UNL1        0.0015
     13 C          63.7696   85.6745   16.2469 C.ar    1  UNL1        0.0000
     14 C          62.8817   85.9026   17.4342 C.ar    1  UNL1        0.0000
     15 C          62.4104   87.2881   17.7631 C.ar    1  UNL1        0.0000
     16 C          62.8270   88.4455   16.9048 C.ar    1  UNL1        0.0015
     17 C          67.0579   92.0465   14.6396 C.ar    1  UNL1        0.0002
     18 C          67.0678   93.0433   15.7605 C.ar    1  UNL1        0.0000
     19 C          68.3227   93.8004   16.0799 C.ar    1  UNL1        0.0000
     20 C          69.5678   93.5607   15.2783 C.ar    1  UNL1        0.0000
     21 C          69.5579   92.5640   14.1574 C.ar    1  UNL1        0.0000
     22 C          68.3029   91.8069   13.8380 C.ar    1  UNL1        0.0000
     23 C          60.0680   89.3035    8.5266 C.3     1  UNL1        0.0005
     24 C          59.2785   88.0732    8.1901 C.3     1  UNL1        0.0047
     25 C          59.5931   86.7719    8.8664 C.3     1  UNL1        0.0261
     26 C          62.9198   84.6091    8.9421 C.ar    1  UNL1        0.1342
     27 C          63.0942   84.3061    7.4834 C.ar    1  UNL1        0.0365
     28 C          62.1015   84.8250    6.4858 C.ar    1  UNL1        0.0028
     29 C          60.9345   85.6470    6.9467 C.ar    1  UNL1       -0.0044
     30 C          60.7602   85.9500    8.4054 C.ar    1  UNL1       -0.0232
     31 C          61.7528   85.4311    9.4031 C.ar    1  UNL1        0.0082
     32 C          61.5785   85.7341   10.8618 C.3     1  UNL1        0.0350
     33 C          62.7814   85.9333   11.7354 C.3     1  UNL1        0.0465
     34 C          63.0408   84.9983   12.8793 C.2     1  UNL1        0.0507
     35 O          61.9207   84.6074   13.7973 O.co2   1  UNL1       -0.5492
     36 O          64.4202   84.4541   13.1051 O.co2   1  UNL1       -0.5492
     37 O          63.9125   84.0902    9.9398 O.3     1  UNL1       -0.4758
     38 C          63.9071   82.6387   10.3178 C.3     1  UNL1        0.2058
     39 C          62.7489   82.0666   11.0803 C.3     1  UNL1        0.0532
     40 C          62.9792   80.9849   12.0939 C.3     1  UNL1        0.0455
     41 O          61.1706   80.9775   13.9591 O.co2   1  UNL1       -0.5492
     42 C          62.5888   81.2033   13.5256 C.2     1  UNL1        0.0505
     43 O          63.6164   81.6474   14.5238 O.co2   1  UNL1       -0.5492
@<TRIPOS>UNITY_ATOM_ATTR
35 1
charge -1
41 1
charge -1
@<TRIPOS>BOND
     1    41    42   ar
     2    42    43   ar
     3    42    40    1
     4    40    39    1
     5    39    38    1
     6    38    37    1
     7    37    26    1
     8    26    27   ar
     9    27    28   ar
    10    28    29   ar
    11    29    30   ar
    12    30    25    1
    13    25    24    1
    14    24    23    1
    15    23     1    1
    16     1     2    1
    17     2     3    1
    18     3     4    1
    19     4     5    1
    20     5     6   ar
    21     6     7   ar
    22     7    17    1
    23    17    18   ar
    24    18    19   ar
    25    19    20   ar
    26    20    21   ar
    27    21    22   ar
    28     7     8   ar
    29     8     9   ar
    30     9    11    1
    31    11    12   ar
    32    12    13   ar
    33    13    14   ar
    34    14    15   ar
    35    15    16   ar
    36     9    10   ar
    37    30    31   ar
    38    31    32    1
    39    32    33    1
    40    33    34    1
    41    34    35   ar
    42    34    36   ar
    43    31    26   ar
    44    10     5   ar
    45    22    17   ar
    46    16    11   ar
