@<TRIPOS>MOLECULE
*****
 49 53 0 0 0
SMALL
GASTEIGER

@<TRIPOS>ATOM
      1 C          60.6385   89.7915   10.5176 C.3     1  UNL1        0.1269
      2 O          59.3647   90.2077   11.1915 O.3     1  UNL1       -0.3830
      3 H          58.6882   90.3889   10.5204 H       1  UNL1        0.2104
      4 C          61.8464   89.4534   11.3401 C.3     1  UNL1        0.1021
      5 C          63.5467   90.6820   12.8731 C.3     1  UNL1        0.1510
      6 C          64.6395   91.6938   13.0518 C.3     1  UNL1        0.0980
      7 N          65.1248   92.4890   11.8762 N.3     1  UNL1       -0.2661
      8 C          64.5174   92.2723   10.5219 C.3     1  UNL1        0.0899
      9 C          63.4246   91.2605   10.3432 C.3     1  UNL1        0.0901
     10 N          62.9392   90.4653   11.5188 N.3     1  UNL1       -0.2621
     11 N          64.0455   89.1904   14.9410 N.am    1  UNL1       -0.3063
     12 C          63.0612   89.8867   14.0487 C.2     1  UNL1        0.2383
     13 O          61.5915   89.7879   14.3320 O.2     1  UNL1       -0.2736
     14 H          65.0101   89.2553   14.7551 H       1  UNL1        0.1493
     15 C          63.1368   89.6621   16.7988 C.3     1  UNL1        0.0196
     16 C          63.5602   88.3951   16.1166 C.3     1  UNL1        0.0569
     17 C          63.9837   87.1281   15.4343 C.3     1  UNL1        0.0196
     18 C          63.0749   87.5998   17.2922 C.3     1  UNL1        0.0196
     19 C          66.2176   93.5008   12.0549 C.3     1  UNL1        0.1008
     20 C          66.5375   94.4625   10.9490 C.ar    1  UNL1        0.0130
     21 C          67.2925   93.9923    9.7412 C.ar    1  UNL1        0.0002
     22 C          67.6125   94.9539    8.6353 C.ar    1  UNL1        0.0204
     23 C          67.1773   96.3857    8.7373 C.ar    1  UNL1        0.0989
     24 N          66.4223   96.8560    9.9451 N.ar    1  UNL1       -0.2426
     25 C          66.1024   95.8944   11.0509 C.ar    1  UNL1        0.0959
     26 C          60.7043   89.7133    9.0211 C.3     1  UNL1        0.0401
     27 C          60.1506   88.5157    8.3075 C.3     1  UNL1        0.0833
     28 C          60.7440   87.1591    8.5474 C.2     1  UNL1        0.2226
     29 O          60.1343   85.9493    7.9035 O.2     1  UNL1       -0.2751
     30 N          61.9470   87.0122    9.4314 N.am    1  UNL1       -0.3001
     31 H          62.3472   87.8063    9.8540 H       1  UNL1        0.1498
     32 C          62.5404   85.6556    9.6713 C.3     1  UNL1        0.1211
     33 C          62.7231   84.9968   11.0064 C.ar    1  UNL1       -0.0060
     34 C          62.3991   85.4464   12.4002 C.ar    1  UNL1       -0.0029
     35 C          62.7027   84.5529   13.5661 C.ar    1  UNL1       -0.0003
     36 C          63.3304   83.2098   13.3382 C.ar    1  UNL1       -0.0003
     37 C          63.6545   82.7601   11.9444 C.ar    1  UNL1       -0.0044
     38 C          63.3508   83.6537   10.7785 C.ar    1  UNL1       -0.0220
     39 C          63.5560   83.4824    9.3025 C.3     1  UNL1        0.0573
     40 C          63.0551   84.7197    8.6182 C.3     1  UNL1        0.1368
     41 O          63.0669   84.9760    7.1403 O.3     1  UNL1       -0.3821
     42 H          63.4817   84.2263    6.6854 H       1  UNL1        0.2104
     43 C          59.0036   88.6746    7.3541 C.3     1  UNL1        0.0355
     44 C          59.0138   89.7863    6.3472 C.ar    1  UNL1       -0.0217
     45 C          57.7273   90.4422    5.9410 C.ar    1  UNL1       -0.0043
     46 C          57.7375   91.5539    4.9341 C.ar    1  UNL1       -0.0003
     47 C          59.0341   92.0098    4.3333 C.ar    1  UNL1       -0.0000
     48 C          60.3205   91.3539    4.7394 C.ar    1  UNL1       -0.0003
     49 C          60.3104   90.2422    5.7464 C.ar    1  UNL1       -0.0043
@<TRIPOS>BOND
     1    15    16    1
     2    16    17    1
     3    16    18    1
     4    16    11    1
     5    11    12   am
     6    12    13    2
     7     5    12    1
     8     5     6    1
     9     6     7    1
    10     7    19    1
    11    19    20    1
    12    20    21   ar
    13    21    22   ar
    14    22    23   ar
    15    23    24   ar
    16    24    25   ar
    17     7     8    1
    18     8     9    1
    19     9    10    1
    20    10     4    1
    21     4     1    1
    22     1     2    1
    23     1    26    1
    24    27    26    1
    25    27    43    1
    26    43    44    1
    27    44    45   ar
    28    45    46   ar
    29    46    47   ar
    30    47    48   ar
    31    48    49   ar
    32    27    28    1
    33    28    29    2
    34    28    30   am
    35    32    30    1
    36    32    33    1
    37    33    34   ar
    38    34    35   ar
    39    35    36   ar
    40    36    37   ar
    41    37    38   ar
    42    38    39    1
    43    39    40    1
    44    40    41    1
    45    10     5    1
    46    49    44   ar
    47    40    32    1
    48    25    20   ar
    49    38    33   ar
    50    11    14    1
    51     2     3    1
    52    30    31    1
    53    41    42    1
@<TRIPOS>MOLECULE
*****
 49 53 0 0 0
SMALL
GASTEIGER

@<TRIPOS>ATOM
      1 C          62.5147   89.9101   12.8771 C.3     1  UNL1        0.1269
      2 O          61.0279   89.7931   12.7177 O.3     1  UNL1       -0.3830
      3 H          60.5946   90.5310   13.1745 H       1  UNL1        0.2104
      4 C          63.4184   88.8847   12.2591 C.3     1  UNL1        0.1021
      5 C          62.5896   86.4751   11.7525 C.3     1  UNL1        0.1510
      6 C          62.4683   85.0331   12.1475 C.3     1  UNL1        0.0980
      7 N          63.0545   84.5588   13.4441 N.3     1  UNL1       -0.2661
      8 C          63.7620   85.5265   14.3458 C.3     1  UNL1        0.0899
      9 C          63.8833   86.9685   13.9508 C.3     1  UNL1        0.0901
     10 N          63.2971   87.4427   12.6542 N.3     1  UNL1       -0.2621
     11 N          60.6851   87.6652   10.4459 N.am    1  UNL1       -0.3063
     12 C          62.0033   86.9494   10.4557 C.2     1  UNL1        0.2383
     13 O          62.7352   86.7079    9.1689 O.2     1  UNL1       -0.2736
     14 H          60.2048   87.8236   11.2905 H       1  UNL1        0.1493
     15 C          59.5186   86.7766    8.9131 C.3     1  UNL1        0.0196
     16 C          60.0988   88.1395    9.1493 C.3     1  UNL1        0.0569
     17 C          60.6791   89.5025    9.3856 C.3     1  UNL1        0.0196
     18 C          59.5126   88.6139    7.8527 C.3     1  UNL1        0.0196
     19 C          62.9332   83.1169   13.8391 C.3     1  UNL1        0.1008
     20 C          62.9541   82.0469   12.7878 C.ar    1  UNL1        0.0130
     21 C          63.4446   82.3628   11.4060 C.ar    1  UNL1        0.0002
     22 C          63.4655   81.2930   10.3547 C.ar    1  UNL1        0.0204
     23 C          62.9960   79.9073   10.6855 C.ar    1  UNL1        0.0989
     24 N          62.5055   79.5915   12.0674 N.ar    1  UNL1       -0.2426
     25 C          62.4846   80.6613   13.1186 C.ar    1  UNL1        0.0959
     26 C          63.0980   91.0526   13.6546 C.3     1  UNL1        0.0401
     27 C          64.5568   91.3783   13.5287 C.3     1  UNL1        0.0833
     28 C          65.0474   92.1841   12.3626 C.2     1  UNL1        0.2226
     29 O          64.7370   91.7434   10.9628 O.2     1  UNL1       -0.2751
     30 N          65.8486   93.4306   12.5962 N.am    1  UNL1       -0.3001
     31 H          66.0524   93.7198   13.5150 H       1  UNL1        0.1498
     32 C          66.3393   94.2364   11.4300 C.3     1  UNL1        0.1211
     33 C          67.1599   93.7209   10.2851 C.ar    1  UNL1       -0.0060
     34 C          67.7013   92.3575    9.9720 C.ar    1  UNL1       -0.0029
     35 C          68.5060   92.1383    8.7253 C.ar    1  UNL1       -0.0003
     36 C          68.7694   93.2824    7.7918 C.ar    1  UNL1       -0.0003
     37 C          68.2280   94.6458    8.1048 C.ar    1  UNL1       -0.0044
     38 C          67.4232   94.8650    9.3515 C.ar    1  UNL1       -0.0220
     39 C          66.7654   96.0876    9.9195 C.3     1  UNL1        0.0573
     40 C          66.0955   95.6991   11.2041 C.3     1  UNL1        0.1368
     41 O          65.3182   96.6128   12.1047 O.3     1  UNL1       -0.3821
     42 H          65.3387   97.5140   11.7465 H       1  UNL1        0.2104
     43 C          65.5250   90.8982   14.5689 C.3     1  UNL1        0.0355
     44 C          66.7567   91.6982   14.8733 C.ar    1  UNL1       -0.0217
     45 C          67.9970   91.5075   14.0516 C.ar    1  UNL1       -0.0043
     46 C          69.2288   92.3076   14.3559 C.ar    1  UNL1       -0.0003
     47 C          69.2202   93.2984   15.4821 C.ar    1  UNL1       -0.0000
     48 C          67.9799   93.4891   16.3039 C.ar    1  UNL1       -0.0003
     49 C          66.7481   92.6890   15.9995 C.ar    1  UNL1       -0.0043
@<TRIPOS>BOND
     1    15    16    1
     2    16    17    1
     3    16    18    1
     4    16    11    1
     5    11    12   am
     6    12    13    2
     7     5    12    1
     8     5     6    1
     9     6     7    1
    10     7    19    1
    11    19    20    1
    12    20    21   ar
    13    21    22   ar
    14    22    23   ar
    15    23    24   ar
    16    24    25   ar
    17     7     8    1
    18     8     9    1
    19     9    10    1
    20    10     4    1
    21     4     1    1
    22     1     2    1
    23     1    26    1
    24    27    26    1
    25    27    43    1
    26    43    44    1
    27    44    45   ar
    28    45    46   ar
    29    46    47   ar
    30    47    48   ar
    31    48    49   ar
    32    27    28    1
    33    28    29    2
    34    28    30   am
    35    32    30    1
    36    32    33    1
    37    33    34   ar
    38    34    35   ar
    39    35    36   ar
    40    36    37   ar
    41    37    38   ar
    42    38    39    1
    43    39    40    1
    44    40    41    1
    45    10     5    1
    46    49    44   ar
    47    40    32    1
    48    25    20   ar
    49    38    33   ar
    50    11    14    1
    51     2     3    1
    52    30    31    1
    53    41    42    1
@<TRIPOS>MOLECULE
*****
 49 53 0 0 0
SMALL
GASTEIGER

@<TRIPOS>ATOM
      1 C          60.7146   89.2651   11.1008 C.3     1  UNL1        0.1269
      2 O          60.1110   90.5791   11.4994 O.3     1  UNL1       -0.3830
      3 H          59.1757   90.5964   11.2428 H       1  UNL1        0.2104
      4 C          62.1601   88.9858   11.3879 C.3     1  UNL1        0.1021
      5 C          63.5911   90.4399   12.9966 C.3     1  UNL1        0.1510
      6 C          64.5446   91.5762   13.2193 C.3     1  UNL1        0.0980
      7 N          65.0207   92.3946   12.0559 N.3     1  UNL1       -0.2661
      8 C          64.5434   92.0768   10.6699 C.3     1  UNL1        0.0899
      9 C          63.5898   90.9405   10.4472 C.3     1  UNL1        0.0901
     10 N          63.1137   90.1221   11.6106 N.3     1  UNL1       -0.2621
     11 N          64.0681   88.7126   14.8778 N.am    1  UNL1       -0.3063
     12 C          63.1149   89.6214   14.1600 C.2     1  UNL1        0.2383
     13 O          61.6854   89.7118   14.6055 O.2     1  UNL1       -0.2736
     14 H          65.0063   88.6533   14.5854 H       1  UNL1        0.1493
     15 C          63.2223   89.1499   16.7733 C.3     1  UNL1        0.0196
     16 C          63.5920   87.8941   16.0411 C.3     1  UNL1        0.0569
     17 C          63.9618   86.6382   15.3088 C.3     1  UNL1        0.0196
     18 C          63.1159   87.0755   17.2044 C.3     1  UNL1        0.0196
     19 C          65.9743   93.5309   12.2786 C.3     1  UNL1        0.1008
     20 C          66.4584   94.3430   11.1140 C.ar    1  UNL1        0.0130
     21 C          67.3213   93.7082   10.0641 C.ar    1  UNL1        0.0002
     22 C          67.8055   94.5202    8.8995 C.ar    1  UNL1        0.0204
     23 C          67.4267   95.9670    8.7849 C.ar    1  UNL1        0.0989
     24 N          66.5637   96.6018    9.8348 N.ar    1  UNL1       -0.2426
     25 C          66.0796   95.7899   10.9994 C.ar    1  UNL1        0.0959
     26 C          59.8727   88.2304   10.4148 C.3     1  UNL1        0.0401
     27 C          59.9537   88.0639    8.9263 C.3     1  UNL1        0.0833
     28 C          59.6400   89.2204    8.0241 C.2     1  UNL1        0.2226
     29 O          59.7371   90.6244    8.5431 O.2     1  UNL1       -0.2751
     30 N          59.2292   88.9729    6.6027 N.am    1  UNL1       -0.3001
     31 H          59.1655   88.0514    6.2621 H       1  UNL1        0.1498
     32 C          58.9155   90.1294    5.7005 C.3     1  UNL1        0.1211
     33 C          59.9023   90.8860    4.8614 C.ar    1  UNL1       -0.0060
     34 C          61.3834   90.7383    4.6757 C.ar    1  UNL1       -0.0029
     35 C          62.1188   91.6612    3.7498 C.ar    1  UNL1       -0.0003
     36 C          61.3732   92.7318    3.0097 C.ar    1  UNL1       -0.0003
     37 C          59.8921   92.8795    3.1954 C.ar    1  UNL1       -0.0044
     38 C          59.1567   91.9566    4.1212 C.ar    1  UNL1       -0.0220
     39 C          57.7091   91.8617    4.5029 C.3     1  UNL1        0.0573
     40 C          57.5601   90.7325    5.4789 C.3     1  UNL1        0.1368
     41 O          56.2803   90.2849    6.1207 O.3     1  UNL1       -0.3821
     42 H          55.5554   90.8615    5.8329 H       1  UNL1        0.2104
     43 C          60.3485   86.7409    8.3400 C.3     1  UNL1        0.0355
     44 C          61.4051   85.9105    9.0063 C.ar    1  UNL1       -0.0217
     45 C          62.5148   85.3144    8.1919 C.ar    1  UNL1       -0.0043
     46 C          63.5715   84.4840    8.8582 C.ar    1  UNL1       -0.0003
     47 C          63.5184   84.2497   10.3388 C.ar    1  UNL1       -0.0000
     48 C          62.4087   84.8458   11.1532 C.ar    1  UNL1       -0.0003
     49 C          61.3520   85.6762   10.4869 C.ar    1  UNL1       -0.0043
@<TRIPOS>BOND
     1    15    16    1
     2    16    17    1
     3    16    18    1
     4    16    11    1
     5    11    12   am
     6    12    13    2
     7     5    12    1
     8     5     6    1
     9     6     7    1
    10     7    19    1
    11    19    20    1
    12    20    21   ar
    13    21    22   ar
    14    22    23   ar
    15    23    24   ar
    16    24    25   ar
    17     7     8    1
    18     8     9    1
    19     9    10    1
    20    10     4    1
    21     4     1    1
    22     1     2    1
    23     1    26    1
    24    27    26    1
    25    27    43    1
    26    43    44    1
    27    44    45   ar
    28    45    46   ar
    29    46    47   ar
    30    47    48   ar
    31    48    49   ar
    32    27    28    1
    33    28    29    2
    34    28    30   am
    35    32    30    1
    36    32    33    1
    37    33    34   ar
    38    34    35   ar
    39    35    36   ar
    40    36    37   ar
    41    37    38   ar
    42    38    39    1
    43    39    40    1
    44    40    41    1
    45    10     5    1
    46    49    44   ar
    47    40    32    1
    48    25    20   ar
    49    38    33   ar
    50    11    14    1
    51     2     3    1
    52    30    31    1
    53    41    42    1
@<TRIPOS>MOLECULE
*****
 49 53 0 0 0
SMALL
GASTEIGER

@<TRIPOS>ATOM
      1 C          63.6863   87.7894   15.2911 C.3     1  UNL1        0.1269
      2 O          63.4934   87.4483   16.7389 O.3     1  UNL1       -0.3830
      3 H          63.9688   86.6280   16.9440 H       1  UNL1        0.2104
      4 C          63.0484   89.0206   14.7191 C.3     1  UNL1        0.1021
      5 C          63.7741   90.7904   12.9609 C.3     1  UNL1        0.1510
      6 C          64.6237   91.9643   12.5736 C.3     1  UNL1        0.0980
      7 N          65.5972   92.5425   13.5574 N.3     1  UNL1       -0.2661
      8 C          65.7212   91.9467   14.9284 C.3     1  UNL1        0.0899
      9 C          64.8716   90.7728   15.3157 C.3     1  UNL1        0.0901
     10 N          63.8981   90.1946   14.3319 N.3     1  UNL1       -0.2621
     11 N          61.6648   91.0483   11.4659 N.am    1  UNL1       -0.3063
     12 C          62.8004   90.2121   11.9771 C.2     1  UNL1        0.2383
     13 O          62.9624   88.7977   11.5045 O.2     1  UNL1       -0.2736
     14 H          61.5585   91.9765   11.7761 H       1  UNL1        0.1493
     15 C          61.8103   90.2382    9.5108 C.3     1  UNL1        0.0196
     16 C          60.6912   90.4701   10.4822 C.3     1  UNL1        0.0569
     17 C          59.5720   90.7021   11.4537 C.3     1  UNL1        0.0196
     18 C          59.7174   89.8920    9.4985 C.3     1  UNL1        0.0196
     19 C          66.4468   93.7164   13.1701 C.3     1  UNL1        0.1008
     20 C          66.7528   93.9765   11.7247 C.ar    1  UNL1        0.0130
     21 C          67.4080   92.9134   10.8938 C.ar    1  UNL1        0.0002
     22 C          67.7140   93.1734    9.4485 C.ar    1  UNL1        0.0204
     23 C          67.3647   94.4966    8.8343 C.ar    1  UNL1        0.0989
     24 N          66.7095   95.5596    9.6653 N.ar    1  UNL1       -0.2426
     25 C          66.4035   95.2997   11.1105 C.ar    1  UNL1        0.0959
     26 C          64.5171   86.8992   14.4151 C.3     1  UNL1        0.0401
     27 C          63.9317   85.6342   13.8611 C.3     1  UNL1        0.0833
     28 C          62.8373   85.6997   12.8374 C.2     1  UNL1        0.2226
     29 O          61.4264   85.3703   13.2258 O.2     1  UNL1       -0.2751
     30 N          63.1538   86.0946   11.4253 N.am    1  UNL1       -0.3001
     31 H          64.0798   86.3108   11.1704 H       1  UNL1        0.1498
     32 C          62.0593   86.1601   10.4016 C.3     1  UNL1        0.1211
     33 C          62.1214   85.6086    9.0080 C.ar    1  UNL1       -0.0060
     34 C          63.2018   84.8817    8.2635 C.ar    1  UNL1       -0.0029
     35 C          62.9718   84.4424    6.8479 C.ar    1  UNL1       -0.0003
     36 C          61.6615   84.7300    6.1767 C.ar    1  UNL1       -0.0003
     37 C          60.5812   85.4569    6.9213 C.ar    1  UNL1       -0.0044
     38 C          60.8111   85.8962    8.3369 C.ar    1  UNL1       -0.0220
     39 C          59.9392   86.6254    9.3158 C.3     1  UNL1        0.0573
     40 C          60.7106   86.7885   10.5918 C.3     1  UNL1        0.1368
     41 O          60.2196   87.4618   11.8390 O.3     1  UNL1       -0.3821
     42 H          59.3273   87.8108   11.6882 H       1  UNL1        0.2104
     43 C          64.4407   84.3036   14.3306 C.3     1  UNL1        0.0355
     44 C          63.7456   83.0432   13.9086 C.ar    1  UNL1       -0.0217
     45 C          64.1944   82.3158   12.6760 C.ar    1  UNL1       -0.0043
     46 C          63.4993   81.0554   12.2540 C.ar    1  UNL1       -0.0003
     47 C          62.3553   80.5224   13.0646 C.ar    1  UNL1       -0.0000
     48 C          61.9064   81.2498   14.2973 C.ar    1  UNL1       -0.0003
     49 C          62.6016   82.5102   14.7193 C.ar    1  UNL1       -0.0043
@<TRIPOS>BOND
     1    15    16    1
     2    16    17    1
     3    16    18    1
     4    16    11    1
     5    11    12   am
     6    12    13    2
     7     5    12    1
     8     5     6    1
     9     6     7    1
    10     7    19    1
    11    19    20    1
    12    20    21   ar
    13    21    22   ar
    14    22    23   ar
    15    23    24   ar
    16    24    25   ar
    17     7     8    1
    18     8     9    1
    19     9    10    1
    20    10     4    1
    21     4     1    1
    22     1     2    1
    23     1    26    1
    24    27    26    1
    25    27    43    1
    26    43    44    1
    27    44    45   ar
    28    45    46   ar
    29    46    47   ar
    30    47    48   ar
    31    48    49   ar
    32    27    28    1
    33    28    29    2
    34    28    30   am
    35    32    30    1
    36    32    33    1
    37    33    34   ar
    38    34    35   ar
    39    35    36   ar
    40    36    37   ar
    41    37    38   ar
    42    38    39    1
    43    39    40    1
    44    40    41    1
    45    10     5    1
    46    49    44   ar
    47    40    32    1
    48    25    20   ar
    49    38    33   ar
    50    11    14    1
    51     2     3    1
    52    30    31    1
    53    41    42    1
@<TRIPOS>MOLECULE
*****
 49 53 0 0 0
SMALL
GASTEIGER

@<TRIPOS>ATOM
      1 C          60.7320   88.6471   10.6935 C.3     1  UNL1        0.1269
      2 O          59.6600   88.1819   11.6339 O.3     1  UNL1       -0.3830
      3 H          58.7924   88.4510   11.2937 H       1  UNL1        0.2104
      4 C          62.1722   88.3550   10.9944 C.3     1  UNL1        0.1021
      5 C          63.5039   88.3769   13.2251 C.3     1  UNL1        0.1510
      6 C          64.2129   89.1358   14.3075 C.3     1  UNL1        0.0980
      7 N          64.2989   90.6318   14.2414 N.3     1  UNL1       -0.2661
      8 C          63.6761   91.3690   13.0930 C.3     1  UNL1        0.0899
      9 C          62.9672   90.6100   12.0107 C.3     1  UNL1        0.0901
     10 N          62.8811   89.1140   12.0767 N.3     1  UNL1       -0.2621
     11 N          63.9001   86.1549   14.5120 N.am    1  UNL1       -0.3063
     12 C          63.4178   86.8807   13.2911 C.2     1  UNL1        0.2383
     13 O          62.8494   86.1105   12.1363 O.2     1  UNL1       -0.2736
     14 H          64.2732   86.6604   15.2700 H       1  UNL1        0.1493
     15 C          62.3864   84.7608   15.0269 C.3     1  UNL1        0.0196
     16 C          63.8140   84.6588   14.5781 C.3     1  UNL1        0.0569
     17 C          65.2418   84.5569   14.1293 C.3     1  UNL1        0.0196
     18 C          63.7280   83.1628   14.6442 C.3     1  UNL1        0.0196
     19 C          65.0079   91.3907   15.3237 C.3     1  UNL1        0.1008
     20 C          66.4171   91.8592   15.1117 C.ar    1  UNL1        0.0130
     21 C          67.1593   92.5327   16.2276 C.ar    1  UNL1        0.0002
     22 C          68.5685   93.0012   16.0156 C.ar    1  UNL1        0.0204
     23 C          69.2352   92.7961   14.6877 C.ar    1  UNL1        0.0989
     24 N          68.4929   92.1226   13.5718 N.ar    1  UNL1       -0.2426
     25 C          67.0838   91.6541   13.7837 C.ar    1  UNL1        0.0959
     26 C          60.3638   89.4044    9.4522 C.3     1  UNL1        0.0401
     27 C          59.8468   88.6697    8.2510 C.3     1  UNL1        0.0833
     28 C          59.5570   89.4161    6.9826 C.2     1  UNL1        0.2226
     29 O          58.2932   89.1414    6.2227 O.2     1  UNL1       -0.2751
     30 N          60.5310   90.4373    6.4740 N.am    1  UNL1       -0.3001
     31 H          61.3605   90.6176    6.9728 H       1  UNL1        0.1498
     32 C          60.2412   91.1837    5.2056 C.3     1  UNL1        0.1211
     33 C          61.2247   91.4792    4.1122 C.ar    1  UNL1       -0.0060
     34 C          62.6799   91.1509    3.9554 C.ar    1  UNL1       -0.0029
     35 C          63.4188   91.5872    2.7252 C.ar    1  UNL1       -0.0003
     36 C          62.7025   92.3518    1.6517 C.ar    1  UNL1       -0.0003
     37 C          61.2473   92.6801    1.8085 C.ar    1  UNL1       -0.0044
     38 C          60.5084   92.2438    3.0387 C.ar    1  UNL1       -0.0220
     39 C          59.0823   92.4207    3.4687 C.3     1  UNL1        0.0573
     40 C          58.9172   91.7656    4.8079 C.3     1  UNL1        0.1368
     41 O          57.6504   91.7032    5.6087 O.3     1  UNL1       -0.3821
     42 H          56.9488   92.1838    5.1421 H       1  UNL1        0.2104
     43 C          59.6195   87.1885    8.3182 C.3     1  UNL1        0.0355
     44 C          60.6940   86.2437    7.8679 C.ar    1  UNL1       -0.0217
     45 C          61.9753   86.1415    8.6411 C.ar    1  UNL1       -0.0043
     46 C          63.0497   85.1966    8.1908 C.ar    1  UNL1       -0.0003
     47 C          62.8429   84.3539    6.9673 C.ar    1  UNL1       -0.0000
     48 C          61.5616   84.4561    6.1941 C.ar    1  UNL1       -0.0003
     49 C          60.4871   85.4009    6.6444 C.ar    1  UNL1       -0.0043
@<TRIPOS>BOND
     1    15    16    1
     2    16    17    1
     3    16    18    1
     4    16    11    1
     5    11    12   am
     6    12    13    2
     7     5    12    1
     8     5     6    1
     9     6     7    1
    10     7    19    1
    11    19    20    1
    12    20    21   ar
    13    21    22   ar
    14    22    23   ar
    15    23    24   ar
    16    24    25   ar
    17     7     8    1
    18     8     9    1
    19     9    10    1
    20    10     4    1
    21     4     1    1
    22     1     2    1
    23     1    26    1
    24    27    26    1
    25    27    43    1
    26    43    44    1
    27    44    45   ar
    28    45    46   ar
    29    46    47   ar
    30    47    48   ar
    31    48    49   ar
    32    27    28    1
    33    28    29    2
    34    28    30   am
    35    32    30    1
    36    32    33    1
    37    33    34   ar
    38    34    35   ar
    39    35    36   ar
    40    36    37   ar
    41    37    38   ar
    42    38    39    1
    43    39    40    1
    44    40    41    1
    45    10     5    1
    46    49    44   ar
    47    40    32    1
    48    25    20   ar
    49    38    33   ar
    50    11    14    1
    51     2     3    1
    52    30    31    1
    53    41    42    1
@<TRIPOS>MOLECULE
*****
 49 53 0 0 0
SMALL
GASTEIGER

@<TRIPOS>ATOM
      1 C          60.9340   89.6420   10.7146 C.3     1  UNL1        0.1269
      2 O          59.6784   89.1391   11.3630 O.3     1  UNL1       -0.3830
      3 H          58.9610   89.1244   10.7104 H       1  UNL1        0.2104
      4 C          62.1965   89.7604   11.5159 C.3     1  UNL1        0.1021
      5 C          63.6991   88.7608   13.3848 C.3     1  UNL1        0.1510
      6 C          64.2315   87.5702   14.1259 C.3     1  UNL1        0.0980
      7 N          63.7936   86.1888   13.7391 N.3     1  UNL1       -0.2661
      8 C          62.8233   85.9978   12.6112 C.3     1  UNL1        0.0899
      9 C          62.2909   87.1883   11.8701 C.3     1  UNL1        0.0901
     10 N          62.7288   88.5698   12.2569 N.3     1  UNL1       -0.2621
     11 N          65.4052   90.7123   13.2088 N.am    1  UNL1       -0.3063
     12 C          64.1370   90.1424   13.7716 C.2     1  UNL1        0.2383
     13 O          63.3067   90.9540   14.7213 O.2     1  UNL1       -0.2736
     14 H          65.9501   90.1796   12.5854 H       1  UNL1        0.1493
     15 C          66.3848   91.5602   14.8884 C.3     1  UNL1        0.0196
     16 C          65.8431   92.0938   13.5955 C.3     1  UNL1        0.0569
     17 C          65.3013   92.6275   12.3024 C.3     1  UNL1        0.0196
     18 C          66.2810   93.4754   13.9822 C.3     1  UNL1        0.0196
     19 C          64.3260   84.9982   14.4801 C.3     1  UNL1        0.1008
     20 C          63.8073   83.6261   14.1665 C.ar    1  UNL1        0.0130
     21 C          64.3908   82.8465   13.0256 C.ar    1  UNL1        0.0002
     22 C          63.8722   81.4743   12.7119 C.ar    1  UNL1        0.0204
     23 C          62.7702   80.8819   13.5392 C.ar    1  UNL1        0.0989
     24 N          62.1867   81.6615   14.6801 N.ar    1  UNL1       -0.2426
     25 C          62.7052   83.0336   14.9938 C.ar    1  UNL1        0.0959
     26 C          60.9271   90.0265    9.2647 C.3     1  UNL1        0.0401
     27 C          60.2013   89.1743    8.2662 C.3     1  UNL1        0.0833
     28 C          59.7877   89.7534    6.9458 C.2     1  UNL1        0.2226
     29 O          58.5516   89.2509    6.2605 O.2     1  UNL1       -0.2751
     30 N          60.6102   90.8352    6.3106 N.am    1  UNL1       -0.3001
     31 H          61.4215   91.1651    6.7604 H       1  UNL1        0.1498
     32 C          60.1966   91.4144    4.9902 C.3     1  UNL1        0.1211
     33 C          61.1048   91.7083    3.8331 C.ar    1  UNL1       -0.0060
     34 C          62.5826   91.5315    3.6470 C.ar    1  UNL1       -0.0029
     35 C          63.2274   91.9234    2.3506 C.ar    1  UNL1       -0.0003
     36 C          62.3944   92.4920    1.2404 C.ar    1  UNL1       -0.0003
     37 C          60.9165   92.6688    1.4265 C.ar    1  UNL1       -0.0044
     38 C          60.2717   92.2769    2.7228 C.ar    1  UNL1       -0.0220
     39 C          58.8487   92.3345    3.1938 C.3     1  UNL1        0.0573
     40 C          58.8023   91.8014    4.5951 C.3     1  UNL1        0.1368
     41 O          57.5768   91.6772    5.4511 O.3     1  UNL1       -0.3821
     42 H          56.8101   92.0272    4.9708 H       1  UNL1        0.2104
     43 C          59.8890   87.7429    8.5881 C.3     1  UNL1        0.0355
     44 C          60.8203   86.6540    8.1443 C.ar    1  UNL1       -0.0217
     45 C          60.4205   85.7333    7.0296 C.ar    1  UNL1       -0.0043
     46 C          61.3518   84.6443    6.5858 C.ar    1  UNL1       -0.0003
     47 C          62.6828   84.4761    7.2567 C.ar    1  UNL1       -0.0000
     48 C          63.0825   85.3968    8.3714 C.ar    1  UNL1       -0.0003
     49 C          62.1513   86.4857    8.8152 C.ar    1  UNL1       -0.0043
@<TRIPOS>BOND
     1    15    16    1
     2    16    17    1
     3    16    18    1
     4    16    11    1
     5    11    12   am
     6    12    13    2
     7     5    12    1
     8     5     6    1
     9     6     7    1
    10     7    19    1
    11    19    20    1
    12    20    21   ar
    13    21    22   ar
    14    22    23   ar
    15    23    24   ar
    16    24    25   ar
    17     7     8    1
    18     8     9    1
    19     9    10    1
    20    10     4    1
    21     4     1    1
    22     1     2    1
    23     1    26    1
    24    27    26    1
    25    27    43    1
    26    43    44    1
    27    44    45   ar
    28    45    46   ar
    29    46    47   ar
    30    47    48   ar
    31    48    49   ar
    32    27    28    1
    33    28    29    2
    34    28    30   am
    35    32    30    1
    36    32    33    1
    37    33    34   ar
    38    34    35   ar
    39    35    36   ar
    40    36    37   ar
    41    37    38   ar
    42    38    39    1
    43    39    40    1
    44    40    41    1
    45    10     5    1
    46    49    44   ar
    47    40    32    1
    48    25    20   ar
    49    38    33   ar
    50    11    14    1
    51     2     3    1
    52    30    31    1
    53    41    42    1
@<TRIPOS>MOLECULE
*****
 49 53 0 0 0
SMALL
GASTEIGER

@<TRIPOS>ATOM
      1 C          61.4917   89.0557   11.9858 C.3     1  UNL1        0.1269
      2 O          60.0830   88.5484   11.8960 O.3     1  UNL1       -0.3830
      3 H          60.0904   87.6239   11.6026 H       1  UNL1        0.2104
      4 C          61.7544   90.4672   12.4199 C.3     1  UNL1        0.1021
      5 C          64.1418   91.1613   13.1741 C.3     1  UNL1        0.1510
      6 C          65.4633   91.8045   12.8742 C.3     1  UNL1        0.0980
      7 N          65.7188   92.3969   11.5200 N.3     1  UNL1       -0.2661
      8 C          64.6529   92.3462   10.4658 C.3     1  UNL1        0.0899
      9 C          63.3314   91.7029   10.7658 C.3     1  UNL1        0.0901
     10 N          63.0759   91.1105   12.1199 N.3     1  UNL1       -0.2621
     11 N          63.6223   89.0986   14.6660 N.am    1  UNL1       -0.3063
     12 C          63.8862   90.5688   14.5283 C.2     1  UNL1        0.2383
     13 O          63.8945   91.4465   15.7447 O.2     1  UNL1       -0.2736
     14 H          63.6169   88.5226   13.8677 H       1  UNL1        0.1493
     15 C          64.1461   87.2845   15.6327 C.3     1  UNL1        0.0196
     16 C          63.3667   88.5061   16.0201 C.3     1  UNL1        0.0569
     17 C          62.5873   89.7278   16.4075 C.3     1  UNL1        0.0196
     18 C          63.1111   87.9137   17.3742 C.3     1  UNL1        0.0196
     19 C          67.0403   93.0402   11.2201 C.3     1  UNL1        0.1008
     20 C          67.0944   94.2968   10.4026 C.ar    1  UNL1        0.0130
     21 C          67.5940   94.2509    8.9891 C.ar    1  UNL1        0.0002
     22 C          67.6482   95.5074    8.1716 C.ar    1  UNL1        0.0204
     23 C          67.2027   96.8098    8.7677 C.ar    1  UNL1        0.0989
     24 N          66.7031   96.8556   10.1813 N.ar    1  UNL1       -0.2426
     25 C          66.6489   95.5991   10.9988 C.ar    1  UNL1        0.0959
     26 C          62.6378   88.1513   11.6414 C.3     1  UNL1        0.0401
     27 C          62.4065   86.9386   10.7894 C.3     1  UNL1        0.0833
     28 C          62.1851   85.6015   11.4322 C.2     1  UNL1        0.2226
     29 O          61.2772   84.5988   10.7839 O.2     1  UNL1       -0.2751
     30 N          62.8717   85.2671   12.7234 N.am    1  UNL1       -0.3001
     31 H          63.4676   85.9252   13.1489 H       1  UNL1        0.1498
     32 C          62.6503   83.9300   13.3661 C.3     1  UNL1        0.1211
     33 C          62.7623   82.5966   12.6883 C.ar    1  UNL1       -0.0060
     34 C          63.1010   82.2126   11.2785 C.ar    1  UNL1       -0.0029
     35 C          63.1368   80.7661   10.8831 C.ar    1  UNL1       -0.0003
     36 C          62.8337   79.7036   11.8976 C.ar    1  UNL1       -0.0003
     37 C          62.4950   80.0876   13.3074 C.ar    1  UNL1       -0.0044
     38 C          62.4593   81.5340   13.7028 C.ar    1  UNL1       -0.0220
     39 C          62.1600   82.2108   15.0076 C.3     1  UNL1        0.0573
     40 C          62.2781   83.6916   14.7995 C.3     1  UNL1        0.1368
     41 O          62.0618   84.7484   15.8418 O.3     1  UNL1       -0.3821
     42 H          61.7988   84.3303   16.6766 H       1  UNL1        0.2104
     43 C          62.3966   87.0629    9.2947 C.3     1  UNL1        0.0355
     44 C          61.1304   87.4342    8.5813 C.ar    1  UNL1       -0.0217
     45 C          60.7607   88.8780    8.4119 C.ar    1  UNL1       -0.0043
     46 C          59.4945   89.2493    7.6985 C.ar    1  UNL1       -0.0003
     47 C          58.5981   88.1768    7.1545 C.ar    1  UNL1       -0.0000
     48 C          58.9678   86.7330    7.3239 C.ar    1  UNL1       -0.0003
     49 C          60.2340   86.3617    8.0372 C.ar    1  UNL1       -0.0043
@<TRIPOS>BOND
     1    15    16    1
     2    16    17    1
     3    16    18    1
     4    16    11    1
     5    11    12   am
     6    12    13    2
     7     5    12    1
     8     5     6    1
     9     6     7    1
    10     7    19    1
    11    19    20    1
    12    20    21   ar
    13    21    22   ar
    14    22    23   ar
    15    23    24   ar
    16    24    25   ar
    17     7     8    1
    18     8     9    1
    19     9    10    1
    20    10     4    1
    21     4     1    1
    22     1     2    1
    23     1    26    1
    24    27    26    1
    25    27    43    1
    26    43    44    1
    27    44    45   ar
    28    45    46   ar
    29    46    47   ar
    30    47    48   ar
    31    48    49   ar
    32    27    28    1
    33    28    29    2
    34    28    30   am
    35    32    30    1
    36    32    33    1
    37    33    34   ar
    38    34    35   ar
    39    35    36   ar
    40    36    37   ar
    41    37    38   ar
    42    38    39    1
    43    39    40    1
    44    40    41    1
    45    10     5    1
    46    49    44   ar
    47    40    32    1
    48    25    20   ar
    49    38    33   ar
    50    11    14    1
    51     2     3    1
    52    30    31    1
    53    41    42    1
@<TRIPOS>MOLECULE
*****
 49 53 0 0 0
SMALL
GASTEIGER

@<TRIPOS>ATOM
      1 C          63.8662   87.7476   14.0550 C.3     1  UNL1        0.1269
      2 O          64.4002   86.9687   15.2203 O.3     1  UNL1       -0.3830
      3 H          64.7343   86.1122   14.9109 H       1  UNL1        0.2104
      4 C          63.2882   89.1152   14.2686 C.3     1  UNL1        0.1021
      5 C          63.8802   90.9828   12.5623 C.3     1  UNL1        0.1510
      6 C          64.6757   92.1994   12.1919 C.3     1  UNL1        0.0980
      7 N          65.6746   92.7649   13.1575 N.3     1  UNL1       -0.2661
      8 C          65.8780   92.1139   14.4935 C.3     1  UNL1        0.0899
      9 C          65.0826   90.8973   14.8639 C.3     1  UNL1        0.0901
     10 N          64.0837   90.3318   13.8982 N.3     1  UNL1       -0.2621
     11 N          61.4137   90.6208   11.8306 N.am    1  UNL1       -0.3063
     12 C          62.8813   90.4173   11.5967 C.2     1  UNL1        0.2383
     13 O          63.3500   89.6482   10.3972 O.2     1  UNL1       -0.2736
     14 H          61.1061   91.1256   12.6179 H       1  UNL1        0.1493
     15 C          61.3157   90.4164    9.7215 C.3     1  UNL1        0.0196
     16 C          60.4148   90.0553   10.8651 C.3     1  UNL1        0.0569
     17 C          59.5138   89.6942   12.0088 C.3     1  UNL1        0.0196
     18 C          59.4158   89.4898    9.8996 C.3     1  UNL1        0.0196
     19 C          66.4700   93.9815   12.7872 C.3     1  UNL1        0.1008
     20 C          66.7284   94.2979   11.3438 C.ar    1  UNL1        0.0130
     21 C          67.4337   93.3016   10.4723 C.ar    1  UNL1        0.0002
     22 C          67.6921   93.6179    9.0289 C.ar    1  UNL1        0.0204
     23 C          67.2450   94.9307    8.4572 C.ar    1  UNL1        0.0989
     24 N          66.5396   95.9270    9.3288 N.ar    1  UNL1       -0.2426
     25 C          66.2813   95.6107   10.7721 C.ar    1  UNL1        0.0959
     26 C          63.9102   87.1589   12.6760 C.3     1  UNL1        0.0401
     27 C          62.7686   86.3209   12.1815 C.3     1  UNL1        0.0833
     28 C          62.5956   84.9179   12.6833 C.2     1  UNL1        0.2226
     29 O          61.6977   84.6452   13.8535 O.2     1  UNL1       -0.2751
     30 N          63.3207   83.7876   12.0148 N.am    1  UNL1       -0.3001
     31 H          63.9100   83.9666   11.2468 H       1  UNL1        0.1498
     32 C          63.1478   82.3846   12.5166 C.3     1  UNL1        0.1211
     33 C          62.9740   81.1599   11.6680 C.ar    1  UNL1       -0.0060
     34 C          62.9229   80.9680   10.1813 C.ar    1  UNL1       -0.0029
     35 C          62.7347   79.5946    9.6084 C.ar    1  UNL1       -0.0003
     36 C          62.5978   78.4130   10.5223 C.ar    1  UNL1       -0.0003
     37 C          62.6490   78.6050   12.0091 C.ar    1  UNL1       -0.0044
     38 C          62.8371   79.9784   12.5819 C.ar    1  UNL1       -0.0220
     39 C          62.9262   80.4729   13.9953 C.3     1  UNL1        0.0573
     40 C          63.1182   81.9600   13.9549 C.3     1  UNL1        0.1368
     41 O          63.2563   82.8638   15.1440 O.3     1  UNL1       -0.3821
     42 H          63.1701   82.3430   15.9578 H       1  UNL1        0.2104
     43 C          61.7999   86.8858   11.1853 C.3     1  UNL1        0.0355
     44 C          61.7196   86.3049    9.8047 C.ar    1  UNL1       -0.0217
     45 C          60.4567   86.4396    9.0066 C.ar    1  UNL1       -0.0043
     46 C          60.3764   85.8587    7.6260 C.ar    1  UNL1       -0.0003
     47 C          61.5590   85.1431    7.0435 C.ar    1  UNL1       -0.0000
     48 C          62.8219   85.0085    7.8415 C.ar    1  UNL1       -0.0003
     49 C          62.9022   85.5893    9.2221 C.ar    1  UNL1       -0.0043
@<TRIPOS>BOND
     1    15    16    1
     2    16    17    1
     3    16    18    1
     4    16    11    1
     5    11    12   am
     6    12    13    2
     7     5    12    1
     8     5     6    1
     9     6     7    1
    10     7    19    1
    11    19    20    1
    12    20    21   ar
    13    21    22   ar
    14    22    23   ar
    15    23    24   ar
    16    24    25   ar
    17     7     8    1
    18     8     9    1
    19     9    10    1
    20    10     4    1
    21     4     1    1
    22     1     2    1
    23     1    26    1
    24    27    26    1
    25    27    43    1
    26    43    44    1
    27    44    45   ar
    28    45    46   ar
    29    46    47   ar
    30    47    48   ar
    31    48    49   ar
    32    27    28    1
    33    28    29    2
    34    28    30   am
    35    32    30    1
    36    32    33    1
    37    33    34   ar
    38    34    35   ar
    39    35    36   ar
    40    36    37   ar
    41    37    38   ar
    42    38    39    1
    43    39    40    1
    44    40    41    1
    45    10     5    1
    46    49    44   ar
    47    40    32    1
    48    25    20   ar
    49    38    33   ar
    50    11    14    1
    51     2     3    1
    52    30    31    1
    53    41    42    1
@<TRIPOS>MOLECULE
*****
 49 53 0 0 0
SMALL
GASTEIGER

@<TRIPOS>ATOM
      1 C          61.4356   88.3156   11.5667 C.3     1  UNL1        0.1269
      2 O          60.1633   87.5228   11.5139 O.3     1  UNL1       -0.3830
      3 H          60.3731   86.5761   11.4880 H       1  UNL1        0.2104
      4 C          61.3843   89.8140   11.6139 C.3     1  UNL1        0.1021
      5 C          63.4378   90.5848   13.0063 C.3     1  UNL1        0.1510
      6 C          64.7074   91.3754   13.1201 C.3     1  UNL1        0.0980
      7 N          65.1931   92.1858   11.9551 N.3     1  UNL1       -0.2661
      8 C          64.4093   92.2056   10.6764 C.3     1  UNL1        0.0899
      9 C          63.1397   91.4150   10.5626 C.3     1  UNL1        0.0901
     10 N          62.6539   90.6046   11.7276 N.3     1  UNL1       -0.2621
     11 N          63.9186   88.9433   14.9620 N.am    1  UNL1       -0.3063
     12 C          62.9520   89.7743   14.1714 C.2     1  UNL1        0.2383
     13 O          61.4996   89.7949   14.5457 O.2     1  UNL1       -0.2736
     14 H          64.8718   88.9299   14.7163 H       1  UNL1        0.1493
     15 C          63.0555   89.3936   16.8467 C.3     1  UNL1        0.0196
     16 C          63.4329   88.1329   16.1270 C.3     1  UNL1        0.0569
     17 C          63.8103   86.8721   15.4071 C.3     1  UNL1        0.0196
     18 C          62.9472   87.3224   17.2919 C.3     1  UNL1        0.0196
     19 C          66.4628   92.9764   12.0689 C.3     1  UNL1        0.1008
     20 C          67.2409   92.9654   13.3513 C.ar    1  UNL1        0.0130
     21 C          68.3841   92.0104   13.5267 C.ar    1  UNL1        0.0002
     22 C          69.1622   91.9993   14.8091 C.ar    1  UNL1        0.0204
     23 C          68.7969   92.9433   15.9161 C.ar    1  UNL1        0.0989
     24 N          67.6536   93.8983   15.7407 N.ar    1  UNL1       -0.2426
     25 C          66.8756   93.9094   14.4583 C.ar    1  UNL1        0.0959
     26 C          62.7592   87.6099   11.5724 C.3     1  UNL1        0.0401
     27 C          62.9086   86.2903   10.8751 C.3     1  UNL1        0.0833
     28 C          62.6501   85.0146   11.6207 C.2     1  UNL1        0.2226
     29 O          61.6282   84.9812   12.7182 O.2     1  UNL1       -0.2751
     30 N          63.4136   83.7722   11.2686 N.am    1  UNL1       -0.3001
     31 H          64.0843   83.7941   10.5482 H       1  UNL1        0.1498
     32 C          63.1551   82.4965   12.0142 C.3     1  UNL1        0.1211
     33 C          62.9861   81.1370   11.4032 C.ar    1  UNL1       -0.0060
     34 C          63.0193   80.6652    9.9798 C.ar    1  UNL1       -0.0029
     35 C          62.8132   79.2129    9.6661 C.ar    1  UNL1       -0.0003
     36 C          62.5738   78.2326   10.7758 C.ar    1  UNL1       -0.0003
     37 C          62.5407   78.7044   12.1993 C.ar    1  UNL1       -0.0044
     38 C          62.7468   80.1567   12.5129 C.ar    1  UNL1       -0.0220
     39 C          62.7678   80.9103   13.8097 C.3     1  UNL1        0.0573
     40 C          63.0202   82.3564   13.5015 C.3     1  UNL1        0.1368
     41 O          63.1200   83.4673   14.5044 O.3     1  UNL1       -0.3821
     42 H          62.9634   83.1145   15.3943 H       1  UNL1        0.2104
     43 C          63.3165   86.2462    9.4324 C.3     1  UNL1        0.0355
     44 C          62.3411   85.7833    8.3910 C.ar    1  UNL1       -0.0217
     45 C          60.9126   86.2376    8.4466 C.ar    1  UNL1       -0.0043
     46 C          59.9373   85.7747    7.4053 C.ar    1  UNL1       -0.0003
     47 C          60.3905   84.8575    6.3083 C.ar    1  UNL1       -0.0000
     48 C          61.8190   84.4032    6.2526 C.ar    1  UNL1       -0.0003
     49 C          62.7943   84.8661    7.2940 C.ar    1  UNL1       -0.0043
@<TRIPOS>BOND
     1    15    16    1
     2    16    17    1
     3    16    18    1
     4    16    11    1
     5    11    12   am
     6    12    13    2
     7     5    12    1
     8     5     6    1
     9     6     7    1
    10     7    19    1
    11    19    20    1
    12    20    21   ar
    13    21    22   ar
    14    22    23   ar
    15    23    24   ar
    16    24    25   ar
    17     7     8    1
    18     8     9    1
    19     9    10    1
    20    10     4    1
    21     4     1    1
    22     1     2    1
    23     1    26    1
    24    27    26    1
    25    27    43    1
    26    43    44    1
    27    44    45   ar
    28    45    46   ar
    29    46    47   ar
    30    47    48   ar
    31    48    49   ar
    32    27    28    1
    33    28    29    2
    34    28    30   am
    35    32    30    1
    36    32    33    1
    37    33    34   ar
    38    34    35   ar
    39    35    36   ar
    40    36    37   ar
    41    37    38   ar
    42    38    39    1
    43    39    40    1
    44    40    41    1
    45    10     5    1
    46    49    44   ar
    47    40    32    1
    48    25    20   ar
    49    38    33   ar
    50    11    14    1
    51     2     3    1
    52    30    31    1
    53    41    42    1
