@<TRIPOS>MOLECULE
*****
 21 23 0 0 0
SMALL
GASTEIGER

@<TRIPOS>ATOM
      1 C          66.1662   92.4369   11.8710 C.ar    1  UNL1       -0.0138
      2 C          64.8085   91.8031   11.8006 C.ar    1  UNL1        0.0051
      3 S          64.3522   91.5280   13.2028 S.2     1  UNL1       -0.0915
      4 C          65.4278   91.9918   14.1398 C.ar    1  UNL1        0.0288
      5 C          65.5312   91.9752   15.6361 C.ar    1  UNL1        0.0065
      6 C          66.7558   92.5203   16.3093 C.ar    1  UNL1        0.0005
      7 C          67.8769   93.0820   15.4862 C.ar    1  UNL1        0.0000
      8 C          67.7735   93.0986   13.9899 C.ar    1  UNL1        0.0002
      9 C          66.5489   92.5535   13.3167 C.ar    1  UNL1        0.0026
     10 C          67.9381   91.9120   10.0448 C.3     1  UNL1        0.0116
     11 C          66.9955   92.8769   10.7011 C.3     1  UNL1        0.0689
     12 C          66.8825   94.2816   10.1876 C.ar    1  UNL1        0.0920
     13 N          67.5439   94.8262    8.9564 N.ar    1  UNL1       -0.2408
     14 C          67.1582   96.2696    8.8229 C.ar    1  UNL1        0.1061
     15 C          66.2585   96.6172    9.9716 C.ar    1  UNL1        0.0572
     16 S          66.0880   95.3885   10.8151 S.2     1  UNL1       -0.0699
     17 C          64.0418   91.4980   10.5480 C.3     1  UNL1        0.0499
     18 C          62.5882   91.1365   10.6277 C.3     1  UNL1        0.0774
     19 N          62.1687   89.6976   10.5673 N.3     1  UNL1       -0.2700
     20 C          62.7063   88.7171   11.5672 C.3     1  UNL1        0.0897
     21 C          61.2118   89.2392    9.5071 C.3     1  UNL1        0.0897
@<TRIPOS>BOND
     1    10    11    1
     2    11    12    1
     3    12    13   ar
     4    13    14   ar
     5    14    15   ar
     6    15    16   ar
     7    11     1    1
     8     1     2   ar
     9     2    17    1
    10    17    18    1
    11    18    19    1
    12    19    20    1
    13    19    21    1
    14     2     3   ar
    15     3     4   ar
    16     4     5   ar
    17     5     6   ar
    18     6     7   ar
    19     7     8   ar
    20     8     9   ar
    21    16    12   ar
    22     9     1   ar
    23     9     4   ar
@<TRIPOS>MOLECULE
*****
 21 23 0 0 0
SMALL
GASTEIGER

@<TRIPOS>ATOM
      1 C          63.5243   85.7507   13.1625 C.ar    1  UNL1       -0.0138
      2 C          63.0551   84.5586   12.3822 C.ar    1  UNL1        0.0051
      3 S          62.3737   85.0556   11.1418 S.2     1  UNL1       -0.0915
      4 C          62.4218   86.5548   11.1554 C.ar    1  UNL1        0.0288
      5 C          61.9099   87.5842   10.1920 C.ar    1  UNL1        0.0065
      6 C          62.1092   89.0432   10.4775 C.ar    1  UNL1        0.0005
      7 C          62.8204   89.4728   11.7264 C.ar    1  UNL1        0.0000
      8 C          63.3322   88.4434   12.6898 C.ar    1  UNL1        0.0002
      9 C          63.1330   86.9844   12.4043 C.ar    1  UNL1        0.0026
     10 C          65.6252   85.1062   14.5487 C.3     1  UNL1        0.0116
     11 C          64.2565   85.7153   14.4712 C.3     1  UNL1        0.0689
     12 C          63.6201   86.2888   15.7024 C.ar    1  UNL1        0.0920
     13 N          63.5078   87.7461   16.0397 N.ar    1  UNL1       -0.2408
     14 C          62.8025   87.8637   17.3583 C.ar    1  UNL1        0.1061
     15 C          62.4790   86.4792   17.8360 C.ar    1  UNL1        0.0572
     16 S          62.9843   85.5058   16.8126 S.2     1  UNL1       -0.0699
     17 C          63.2356   83.1219   12.7736 C.3     1  UNL1        0.0499
     18 C          62.3601   82.5169   13.8307 C.3     1  UNL1        0.0774
     19 N          61.8678   81.1079   13.6809 N.3     1  UNL1       -0.2700
     20 C          60.5077   80.7307   14.1889 C.3     1  UNL1        0.0897
     21 C          62.7354   80.0763   13.0230 C.3     1  UNL1        0.0897
@<TRIPOS>BOND
     1    10    11    1
     2    11    12    1
     3    12    13   ar
     4    13    14   ar
     5    14    15   ar
     6    15    16   ar
     7    11     1    1
     8     1     2   ar
     9     2    17    1
    10    17    18    1
    11    18    19    1
    12    19    20    1
    13    19    21    1
    14     2     3   ar
    15     3     4   ar
    16     4     5   ar
    17     5     6   ar
    18     6     7   ar
    19     7     8   ar
    20     8     9   ar
    21    16    12   ar
    22     9     1   ar
    23     9     4   ar
@<TRIPOS>MOLECULE
*****
 21 23 0 0 0
SMALL
GASTEIGER

@<TRIPOS>ATOM
      1 C          63.0094   84.9512   12.0847 C.ar    1  UNL1       -0.0138
      2 C          63.5242   85.7145   13.2689 C.ar    1  UNL1        0.0051
      3 S          63.7862   84.7344   14.3738 S.2     1  UNL1       -0.0915
      4 C          63.4334   83.3654   13.8724 C.ar    1  UNL1        0.0288
      5 C          63.4873   82.0141   14.5213 C.ar    1  UNL1        0.0065
      6 C          63.0610   80.7969   13.7555 C.ar    1  UNL1        0.0005
      7 C          62.5809   80.9309   12.3408 C.ar    1  UNL1        0.0000
      8 C          62.5270   82.2821   11.6918 C.ar    1  UNL1        0.0002
      9 C          62.9533   83.4994   12.4577 C.ar    1  UNL1        0.0026
     10 C          63.0886   84.8944    9.4884 C.3     1  UNL1        0.0116
     11 C          62.6192   85.5369   10.7601 C.3     1  UNL1        0.0689
     12 C          61.7597   86.7650   10.7069 C.ar    1  UNL1        0.0920
     13 N          60.6365   87.0964   11.6442 N.ar    1  UNL1       -0.2408
     14 C          60.0551   88.4136   11.2237 C.ar    1  UNL1        0.1061
     15 C          60.8188   88.8963   10.0264 C.ar    1  UNL1        0.0572
     16 S          61.8724   87.8774    9.7070 S.2     1  UNL1       -0.0699
     17 C          63.7392   87.1975   13.3364 C.3     1  UNL1        0.0499
     18 C          64.2484   87.8247   14.6002 C.3     1  UNL1        0.0774
     19 N          63.5990   89.0662   15.1359 N.3     1  UNL1       -0.2700
     20 C          63.1527   89.1215   16.5669 C.3     1  UNL1        0.0897
     21 C          63.3957   90.2524   14.2405 C.3     1  UNL1        0.0897
@<TRIPOS>BOND
     1    10    11    1
     2    11    12    1
     3    12    13   ar
     4    13    14   ar
     5    14    15   ar
     6    15    16   ar
     7    11     1    1
     8     1     2   ar
     9     2    17    1
    10    17    18    1
    11    18    19    1
    12    19    20    1
    13    19    21    1
    14     2     3   ar
    15     3     4   ar
    16     4     5   ar
    17     5     6   ar
    18     6     7   ar
    19     7     8   ar
    20     8     9   ar
    21    16    12   ar
    22     9     1   ar
    23     9     4   ar
@<TRIPOS>MOLECULE
*****
 21 23 0 0 0
SMALL
GASTEIGER

@<TRIPOS>ATOM
      1 C          62.3719   86.5029   11.1053 C.ar    1  UNL1       -0.0138
      2 C          62.7017   87.7679   11.8408 C.ar    1  UNL1        0.0051
      3 S          61.9625   88.8940   11.1809 S.2     1  UNL1       -0.0915
      4 C          61.1758   88.3249   10.0375 C.ar    1  UNL1        0.0288
      5 C          60.2618   88.9615    9.0329 C.ar    1  UNL1        0.0065
      6 C          59.6007   88.1202    7.9816 C.ar    1  UNL1        0.0005
      7 C          59.8537   86.6425    7.9349 C.ar    1  UNL1        0.0000
      8 C          60.7677   86.0059    8.9395 C.ar    1  UNL1        0.0002
      9 C          61.4288   86.8472    9.9908 C.ar    1  UNL1        0.0026
     10 C          63.2456   84.1855   10.3202 C.3     1  UNL1        0.0116
     11 C          62.8935   85.1340   11.4277 C.3     1  UNL1        0.0689
     12 C          63.0630   84.7134   12.8575 C.ar    1  UNL1        0.0920
     13 N          62.0281   84.8236   13.9376 N.ar    1  UNL1       -0.2408
     14 C          62.6228   84.2871   15.2059 C.ar    1  UNL1        0.1061
     15 C          64.0252   83.8453   14.9096 C.ar    1  UNL1        0.0572
     16 S          64.2973   84.1088   13.4582 S.2     1  UNL1       -0.0699
     17 C          63.6111   87.8861   13.0278 C.3     1  UNL1        0.0499
     18 C          63.8949   89.2329   13.6241 C.3     1  UNL1        0.0774
     19 N          63.7397   89.4472   15.1006 N.3     1  UNL1       -0.2700
     20 C          63.4307   88.2861   15.9986 C.3     1  UNL1        0.0897
     21 C          63.8936   90.8226   15.6791 C.3     1  UNL1        0.0897
@<TRIPOS>BOND
     1    10    11    1
     2    11    12    1
     3    12    13   ar
     4    13    14   ar
     5    14    15   ar
     6    15    16   ar
     7    11     1    1
     8     1     2   ar
     9     2    17    1
    10    17    18    1
    11    18    19    1
    12    19    20    1
    13    19    21    1
    14     2     3   ar
    15     3     4   ar
    16     4     5   ar
    17     5     6   ar
    18     6     7   ar
    19     7     8   ar
    20     8     9   ar
    21    16    12   ar
    22     9     1   ar
    23     9     4   ar
@<TRIPOS>MOLECULE
*****
 21 23 0 0 0
SMALL
GASTEIGER

@<TRIPOS>ATOM
      1 C          63.7635   89.3082   13.5739 C.ar    1  UNL1       -0.0138
      2 C          63.9294   87.8341   13.7959 C.ar    1  UNL1        0.0051
      3 S          63.3041   87.1174   12.6361 S.2     1  UNL1       -0.0915
      4 C          62.7516   88.1486   11.6972 C.ar    1  UNL1        0.0288
      5 C          62.0268   88.0296   10.3894 C.ar    1  UNL1        0.0065
      6 C          61.5858   89.2646    9.6613 C.ar    1  UNL1        0.0005
      7 C          61.8697   90.6186   10.2409 C.ar    1  UNL1        0.0000
      8 C          62.5946   90.7376   11.5487 C.ar    1  UNL1        0.0002
      9 C          63.0355   89.5026   12.2768 C.ar    1  UNL1        0.0026
     10 C          63.6575   90.5316   15.8636 C.3     1  UNL1        0.0116
     11 C          64.2415   90.3969   14.4884 C.3     1  UNL1        0.0689
     12 C          65.3033   91.3509   14.0279 C.ar    1  UNL1        0.0920
     13 N          65.1344   92.4280   12.9977 N.ar    1  UNL1       -0.2408
     14 C          66.4473   93.1381   12.8499 C.ar    1  UNL1        0.1061
     15 C          67.4278   92.4999   13.7886 C.ar    1  UNL1        0.0572
     16 S          66.7208   91.3953   14.5167 S.2     1  UNL1       -0.0699
     17 C          64.6026   87.1897   14.9714 C.3     1  UNL1        0.0499
     18 C          64.3337   85.7495   15.2930 C.3     1  UNL1        0.0774
     19 N          63.0624   85.3609   15.9878 N.3     1  UNL1       -0.2700
     20 C          62.2237   84.2413   15.4463 C.3     1  UNL1        0.0897
     21 C          62.6298   86.0918   17.2242 C.3     1  UNL1        0.0897
@<TRIPOS>BOND
     1    10    11    1
     2    11    12    1
     3    12    13   ar
     4    13    14   ar
     5    14    15   ar
     6    15    16   ar
     7    11     1    1
     8     1     2   ar
     9     2    17    1
    10    17    18    1
    11    18    19    1
    12    19    20    1
    13    19    21    1
    14     2     3   ar
    15     3     4   ar
    16     4     5   ar
    17     5     6   ar
    18     6     7   ar
    19     7     8   ar
    20     8     9   ar
    21    16    12   ar
    22     9     1   ar
    23     9     4   ar
@<TRIPOS>MOLECULE
*****
 21 23 0 0 0
SMALL
GASTEIGER

@<TRIPOS>ATOM
      1 C          64.9631   91.7558   12.9704 C.ar    1  UNL1       -0.0138
      2 C          65.3634   92.8216   11.9937 C.ar    1  UNL1        0.0051
      3 S          64.6656   92.5458   10.6949 S.2     1  UNL1       -0.0915
      4 C          63.8339   91.3096   10.8689 C.ar    1  UNL1        0.0288
      5 C          62.9330   90.5655    9.9284 C.ar    1  UNL1        0.0065
      6 C          62.2159   89.3331   10.3943 C.ar    1  UNL1        0.0005
      7 C          62.3998   88.8449   11.8006 C.ar    1  UNL1        0.0000
      8 C          63.3008   89.5890   12.7411 C.ar    1  UNL1        0.0002
      9 C          64.0178   90.8214   12.2752 C.ar    1  UNL1        0.0026
     10 C          64.4972   91.1162   15.4451 C.3     1  UNL1        0.0116
     11 C          65.4266   91.6441   14.3926 C.3     1  UNL1        0.0689
     12 C          66.8194   92.0602   14.7624 C.ar    1  UNL1        0.0920
     13 N          68.0680   91.7418   13.9945 N.ar    1  UNL1       -0.2408
     14 C          69.2285   92.3525   14.7226 C.ar    1  UNL1        0.1061
     15 C          68.6972   93.0485   15.9405 C.ar    1  UNL1        0.0572
     16 S          67.2083   92.8678   15.9651 S.2     1  UNL1       -0.0699
     17 C          66.2976   93.9627   12.2678 C.3     1  UNL1        0.0499
     18 C          66.2645   95.1845   11.3982 C.3     1  UNL1        0.0774
     19 N          67.0980   95.2413   10.1524 N.3     1  UNL1       -0.2700
     20 C          67.8900   94.0413    9.7246 C.3     1  UNL1        0.0897
     21 C          67.1395   96.4979    9.3345 C.3     1  UNL1        0.0897
@<TRIPOS>BOND
     1    10    11    1
     2    11    12    1
     3    12    13   ar
     4    13    14   ar
     5    14    15   ar
     6    15    16   ar
     7    11     1    1
     8     1     2   ar
     9     2    17    1
    10    17    18    1
    11    18    19    1
    12    19    20    1
    13    19    21    1
    14     2     3   ar
    15     3     4   ar
    16     4     5   ar
    17     5     6   ar
    18     6     7   ar
    19     7     8   ar
    20     8     9   ar
    21    16    12   ar
    22     9     1   ar
    23     9     4   ar
@<TRIPOS>MOLECULE
*****
 21 23 0 0 0
SMALL
GASTEIGER

@<TRIPOS>ATOM
      1 C          63.7880   84.8791   13.5556 C.ar    1  UNL1       -0.0138
      2 C          63.1100   85.6017   12.4295 C.ar    1  UNL1        0.0051
      3 S          62.4627   84.5778   11.5448 S.2     1  UNL1       -0.0915
      4 C          62.7407   83.2224   12.1241 C.ar    1  UNL1        0.0288
      5 C          62.3538   81.8427   11.6806 C.ar    1  UNL1        0.0065
      6 C          62.7859   80.6492   12.4798 C.ar    1  UNL1        0.0005
      7 C          63.6050   80.8354   13.7226 C.ar    1  UNL1        0.0000
      8 C          63.9919   82.2151   14.1661 C.ar    1  UNL1        0.0002
      9 C          63.5598   83.4086   13.3669 C.ar    1  UNL1        0.0026
     10 C          66.0490   85.3569   14.7429 C.3     1  UNL1        0.0116
     11 C          64.5589   85.5152   14.6741 C.3     1  UNL1        0.0689
     12 C          63.8399   86.3096   15.7237 C.ar    1  UNL1        0.0920
     13 N          63.7258   87.8044   15.7742 N.ar    1  UNL1       -0.2408
     14 C          62.9241   88.1673   16.9889 C.ar    1  UNL1        0.1061
     15 C          62.5427   86.8969   17.6892 C.ar    1  UNL1        0.0572
     16 S          63.1088   85.7487   16.9072 S.2     1  UNL1       -0.0699
     17 C          63.0838   87.0873   12.2241 C.3     1  UNL1        0.0499
     18 C          62.1835   87.6850   11.1839 C.3     1  UNL1        0.0774
     19 N          61.3925   88.9205   11.4968 N.3     1  UNL1       -0.2700
     20 C          62.1006   90.1954   11.8478 C.3     1  UNL1        0.0897
     21 C          59.8935   88.8810   11.4588 C.3     1  UNL1        0.0897
@<TRIPOS>BOND
     1    10    11    1
     2    11    12    1
     3    12    13   ar
     4    13    14   ar
     5    14    15   ar
     6    15    16   ar
     7    11     1    1
     8     1     2   ar
     9     2    17    1
    10    17    18    1
    11    18    19    1
    12    19    20    1
    13    19    21    1
    14     2     3   ar
    15     3     4   ar
    16     4     5   ar
    17     5     6   ar
    18     6     7   ar
    19     7     8   ar
    20     8     9   ar
    21    16    12   ar
    22     9     1   ar
    23     9     4   ar
@<TRIPOS>MOLECULE
*****
 21 23 0 0 0
SMALL
GASTEIGER

@<TRIPOS>ATOM
      1 C          62.7369   87.2264   11.8018 C.ar    1  UNL1       -0.0138
      2 C          62.0658   88.1379   10.8175 C.ar    1  UNL1        0.0051
      3 S          62.3079   89.5519   11.2555 S.2     1  UNL1       -0.0915
      4 C          63.1287   89.5144   12.5105 C.ar    1  UNL1        0.0288
      5 C          63.6688   90.6032   13.3894 C.ar    1  UNL1        0.0065
      6 C          64.4741   90.2548   14.6060 C.ar    1  UNL1        0.0005
      7 C          64.7393   88.8175   14.9436 C.ar    1  UNL1        0.0000
      8 C          64.1991   87.7287   14.0647 C.ar    1  UNL1        0.0002
      9 C          63.3938   88.0771   12.8481 C.ar    1  UNL1        0.0026
     10 C          62.4884   85.0204   10.4519 C.3     1  UNL1        0.0116
     11 C          62.7491   85.7274   11.7490 C.3     1  UNL1        0.0689
     12 C          63.0218   84.9353   12.9931 C.ar    1  UNL1        0.0920
     13 N          62.1207   84.8317   14.1878 N.ar    1  UNL1       -0.2408
     14 C          62.7856   83.9400   15.1941 C.ar    1  UNL1        0.1061
     15 C          64.0977   83.4924   14.6215 C.ar    1  UNL1        0.0572
     16 S          64.2438   84.1076   13.2612 S.2     1  UNL1       -0.0699
     17 C          61.2890   87.7104    9.6076 C.3     1  UNL1        0.0499
     18 C          60.2901   88.6432    8.9895 C.3     1  UNL1        0.0774
     19 N          59.5398   88.2298    7.7582 N.3     1  UNL1       -0.2700
     20 C          59.0552   86.8176    7.6139 C.3     1  UNL1        0.0897
     21 C          59.2741   89.2287    6.6711 C.3     1  UNL1        0.0897
@<TRIPOS>BOND
     1    10    11    1
     2    11    12    1
     3    12    13   ar
     4    13    14   ar
     5    14    15   ar
     6    15    16   ar
     7    11     1    1
     8     1     2   ar
     9     2    17    1
    10    17    18    1
    11    18    19    1
    12    19    20    1
    13    19    21    1
    14     2     3   ar
    15     3     4   ar
    16     4     5   ar
    17     5     6   ar
    18     6     7   ar
    19     7     8   ar
    20     8     9   ar
    21    16    12   ar
    22     9     1   ar
    23     9     4   ar
@<TRIPOS>MOLECULE
*****
 21 23 0 0 0
SMALL
GASTEIGER

@<TRIPOS>ATOM
      1 C          62.2671   88.5844   11.0218 C.ar    1  UNL1       -0.0138
      2 C          62.5076   87.2238   11.6058 C.ar    1  UNL1        0.0051
      3 S          61.6670   86.2391   10.8483 S.2     1  UNL1       -0.0915
      4 C          60.9070   86.9911    9.7962 C.ar    1  UNL1        0.0288
      5 C          59.9252   86.5433    8.7544 C.ar    1  UNL1        0.0065
      6 C          59.3143   87.5449    7.8198 C.ar    1  UNL1        0.0005
      7 C          59.6852   88.9943    7.9270 C.ar    1  UNL1        0.0000
      8 C          60.6670   89.4422    8.9688 C.ar    1  UNL1        0.0002
      9 C          61.2779   88.4406    9.9034 C.ar    1  UNL1        0.0026
     10 C          63.1871   90.9543   10.4855 C.3     1  UNL1        0.0116
     11 C          62.9041   89.8641   11.4763 C.3     1  UNL1        0.0689
     12 C          63.2580   90.0537   12.9215 C.ar    1  UNL1        0.0920
     13 N          62.3625   89.7765   14.0924 N.ar    1  UNL1       -0.2408
     14 C          63.1207   90.1054   15.3441 C.ar    1  UNL1        0.1061
     15 C          64.4849   90.5859   14.9469 C.ar    1  UNL1        0.0572
     16 S          64.5699   90.5540   13.4496 S.2     1  UNL1       -0.0699
     17 C          63.4272   86.9041   12.7469 C.3     1  UNL1        0.0499
     18 C          63.5219   85.4988   13.2627 C.3     1  UNL1        0.0774
     19 N          63.2942   85.2172   14.7183 N.3     1  UNL1       -0.2700
     20 C          62.4346   84.0598   15.1329 C.3     1  UNL1        0.0897
     21 C          63.9261   86.0929   15.7594 C.3     1  UNL1        0.0897
@<TRIPOS>BOND
     1    10    11    1
     2    11    12    1
     3    12    13   ar
     4    13    14   ar
     5    14    15   ar
     6    15    16   ar
     7    11     1    1
     8     1     2   ar
     9     2    17    1
    10    17    18    1
    11    18    19    1
    12    19    20    1
    13    19    21    1
    14     2     3   ar
    15     3     4   ar
    16     4     5   ar
    17     5     6   ar
    18     6     7   ar
    19     7     8   ar
    20     8     9   ar
    21    16    12   ar
    22     9     1   ar
    23     9     4   ar
