@<TRIPOS>MOLECULE
*****
 35 38 0 0 0
SMALL
GASTEIGER

@<TRIPOS>ATOM
      1 C          65.3250   91.7513   13.6181 C.ar    1  UNL1       -0.0044
      2 C          64.4642   91.3704   12.4503 C.ar    1  UNL1       -0.0014
      3 C          63.8834   89.9900   12.3653 C.ar    1  UNL1        0.0144
      4 C          64.1635   88.9905   13.4481 C.ar    1  UNL1        0.0516
      5 C          65.0244   89.3714   14.6160 C.ar    1  UNL1        0.0144
      6 C          65.6051   90.7518   14.7010 C.ar    1  UNL1       -0.0014
      7 N          63.5827   87.6101   13.3631 N.am    1  UNL1       -0.2681
      8 C          64.2047   86.4858   14.1371 C.2     1  UNL1        0.3077
      9 O          65.4074   86.7419   14.9960 O.2     1  UNL1       -0.2522
     10 N          63.6239   85.1054   14.0521 N.am    1  UNL1       -0.2632
     11 C          63.9582   83.7748   14.6587 C.3     1  UNL1        0.1010
     12 C          62.8025   83.1533   13.9320 C.3     1  UNL1        0.0636
     13 C          62.4682   84.4838   13.3254 C.3     1  UNL1        0.1010
     14 H          62.7933   87.4420   12.7994 H       1  UNL1        0.1564
     15 C          62.2218   81.7729   13.8470 C.ar    1  UNL1        0.0012
     16 C          63.0664   80.6324   13.3614 C.ar    1  UNL1        0.0948
     17 N          62.4856   79.2520   13.2764 N.ar    1  UNL1       -0.2414
     18 C          61.0602   79.0121   13.6770 C.ar    1  UNL1        0.1129
     19 C          60.2156   80.1525   14.1627 C.ar    1  UNL1        0.0607
     20 N          58.7901   79.9127   14.5633 N.pl3   1  UNL1       -0.3558
     21 C          60.7964   81.5329   14.2476 C.ar    1  UNL1        0.0130
     22 H          58.4089   79.0067   14.5076 H       1  UNL1        0.1424
     23 H          58.2357   80.6612   14.8821 H       1  UNL1        0.1424
     24 C          66.6277   93.5665   14.9438 C.3     1  UNL1        0.0262
     25 C          65.9058   93.1317   13.7030 C.3     1  UNL1        0.0941
     26 N          65.7646   94.0772   12.5471 N.am    1  UNL1       -0.3022
     27 C          66.6627   93.9418   11.3533 C.2     1  UNL1        0.2223
     28 O          67.7019   92.8608   11.3154 O.2     1  UNL1       -0.2751
     29 H          65.0825   94.7867   12.5720 H       1  UNL1        0.1497
     30 C          66.5215   94.8873   10.1974 C.3     1  UNL1        0.0815
     31 C          65.4237   95.9094   10.1943 C.3     1  UNL1        0.0412
     32 C          65.2825   96.8549    9.0385 C.3     1  UNL1        0.1427
     33 O          66.2392   96.7783    7.8856 O.3     1  UNL1       -0.3538
     34 C          67.3370   95.7561    7.8887 C.3     1  UNL1        0.1427
     35 C          67.4781   94.8107    9.0446 C.3     1  UNL1        0.0412
@<TRIPOS>BOND
     1    25    24    1
     2    25    26    1
     3    26    27   am
     4    27    28    2
     5    27    30    1
     6    30    31    1
     7    31    32    1
     8    32    33    1
     9    33    34    1
    10    34    35    1
    11    25     1    1
    12     1     2   ar
    13     2     3   ar
    14     3     4   ar
    15     4     7    1
    16     7     8   am
    17     8     9    2
    18     8    10   am
    19    10    11    1
    20    11    12    1
    21    12    15    1
    22    15    16   ar
    23    16    17   ar
    24    17    18   ar
    25    18    19   ar
    26    19    20    1
    27    19    21   ar
    28    12    13    1
    29     4     5   ar
    30     5     6   ar
    31    35    30    1
    32     6     1   ar
    33    13    10    1
    34    21    15   ar
    35    26    29    1
    36     7    14    1
    37    20    22    1
    38    20    23    1
@<TRIPOS>MOLECULE
*****
 35 38 0 0 0
SMALL
GASTEIGER

@<TRIPOS>ATOM
      1 C          59.9209   91.2809    4.7263 C.ar    1  UNL1       -0.0044
      2 C          61.3422   90.8511    4.5141 C.ar    1  UNL1       -0.0014
      3 C          62.1372   91.4236    3.3782 C.ar    1  UNL1        0.0144
      4 C          61.5109   92.4257    2.4545 C.ar    1  UNL1        0.0516
      5 C          60.0895   92.8556    2.6666 C.ar    1  UNL1        0.0144
      6 C          59.2945   92.2832    3.8026 C.ar    1  UNL1       -0.0014
      7 N          62.3059   92.9981    1.3185 N.am    1  UNL1       -0.2681
      8 C          61.8158   92.8469   -0.0910 C.2     1  UNL1        0.3077
      9 O          60.5308   92.1232   -0.3647 O.2     1  UNL1       -0.2522
     10 N          62.6108   93.4193   -1.2270 N.am    1  UNL1       -0.2632
     11 C          62.4483   93.4668   -2.7174 C.3     1  UNL1        0.1010
     12 C          63.7351   94.2288   -2.8334 C.3     1  UNL1        0.0636
     13 C          63.8977   94.1813   -1.3430 C.3     1  UNL1        0.1010
     14 H          63.1493   93.4731    1.4982 H       1  UNL1        0.1564
     15 C          64.5301   94.8012   -3.9693 C.ar    1  UNL1        0.0012
     16 C          64.7476   96.2825   -4.0611 C.ar    1  UNL1        0.0948
     17 N          65.5426   96.8549   -5.1970 N.ar    1  UNL1       -0.2414
     18 C          66.1201   95.9460   -6.2412 C.ar    1  UNL1        0.1129
     19 C          65.9026   94.4647   -6.1494 C.ar    1  UNL1        0.0607
     20 N          66.4802   93.5557   -7.1936 N.pl3   1  UNL1       -0.3558
     21 C          65.1076   93.8923   -5.0135 C.ar    1  UNL1        0.0130
     22 H          67.0020   93.9314   -7.9392 H       1  UNL1        0.1424
     23 H          66.3375   92.5835   -7.1334 H       1  UNL1        0.1424
     24 C          57.6462   90.5101    5.7171 C.3     1  UNL1        0.0262
     25 C          59.1259   90.7085    5.8622 C.3     1  UNL1        0.0941
     26 N          59.8106   90.3345    7.1434 N.am    1  UNL1       -0.3022
     27 C          59.6891   88.9388    7.6791 C.2     1  UNL1        0.2223
     28 O          58.8827   87.9169    6.9337 O.2     1  UNL1       -0.2751
     29 H          60.3399   91.0052    7.6327 H       1  UNL1        0.1497
     30 C          60.3738   88.5648    8.9603 C.3     1  UNL1        0.0815
     31 C          61.0654   89.6167    9.7758 C.3     1  UNL1        0.0412
     32 C          61.7501   89.2427   11.0569 C.3     1  UNL1        0.1427
     33 O          61.7432   87.8168   11.5225 O.3     1  UNL1       -0.3538
     34 C          61.0517   86.7649   10.7069 C.3     1  UNL1        0.1427
     35 C          60.3670   87.1389    9.4258 C.3     1  UNL1        0.0412
@<TRIPOS>BOND
     1    25    24    1
     2    25    26    1
     3    26    27   am
     4    27    28    2
     5    27    30    1
     6    30    31    1
     7    31    32    1
     8    32    33    1
     9    33    34    1
    10    34    35    1
    11    25     1    1
    12     1     2   ar
    13     2     3   ar
    14     3     4   ar
    15     4     7    1
    16     7     8   am
    17     8     9    2
    18     8    10   am
    19    10    11    1
    20    11    12    1
    21    12    15    1
    22    15    16   ar
    23    16    17   ar
    24    17    18   ar
    25    18    19   ar
    26    19    20    1
    27    19    21   ar
    28    12    13    1
    29     4     5   ar
    30     5     6   ar
    31    35    30    1
    32     6     1   ar
    33    13    10    1
    34    21    15   ar
    35    26    29    1
    36     7    14    1
    37    20    22    1
    38    20    23    1
@<TRIPOS>MOLECULE
*****
 35 38 0 0 0
SMALL
GASTEIGER

@<TRIPOS>ATOM
      1 C          59.6125   90.0960    6.6523 C.ar    1  UNL1       -0.0044
      2 C          58.2253   90.4687    6.2202 C.ar    1  UNL1       -0.0014
      3 C          58.0155   91.2231    4.9408 C.ar    1  UNL1        0.0144
      4 C          59.1929   91.6046    4.0934 C.ar    1  UNL1        0.0516
      5 C          60.5802   91.2318    4.5254 C.ar    1  UNL1        0.0144
      6 C          60.7900   90.4775    5.8048 C.ar    1  UNL1       -0.0014
      7 N          58.9831   92.3589    2.8139 N.am    1  UNL1       -0.2681
      8 C          60.1628   92.7719    1.9847 C.2     1  UNL1        0.3077
      9 O          61.5523   92.4305    2.4348 O.2     1  UNL1       -0.2522
     10 N          59.9529   93.5262    0.7052 N.am    1  UNL1       -0.2632
     11 C          60.8535   94.0889   -0.3543 C.3     1  UNL1        0.1010
     12 C          59.6562   94.5930   -1.1042 C.3     1  UNL1        0.0636
     13 C          58.7556   94.0304   -0.0447 C.3     1  UNL1        0.1010
     14 H          58.0711   92.5830    2.5185 H       1  UNL1        0.1564
     15 C          59.4464   95.3473   -2.3836 C.ar    1  UNL1        0.0012
     16 C          58.1455   96.0505   -2.6350 C.ar    1  UNL1        0.0948
     17 N          57.9357   96.8049   -3.9144 N.ar    1  UNL1       -0.2414
     18 C          59.0267   96.8560   -4.9425 C.ar    1  UNL1        0.1129
     19 C          60.3276   96.1528   -4.6911 C.ar    1  UNL1        0.0607
     20 N          61.4187   96.2039   -5.7192 N.pl3   1  UNL1       -0.3558
     21 C          60.5374   95.3985   -3.4117 C.ar    1  UNL1        0.0130
     22 H          61.2810   96.6990   -6.5590 H       1  UNL1        0.1424
     23 H          62.2726   95.7424   -5.5542 H       1  UNL1        0.1424
     24 C          59.1800   88.0001    8.1254 C.3     1  UNL1        0.0262
     25 C          59.8224   89.3416    7.9317 C.3     1  UNL1        0.0941
     26 N          60.6746   89.9289    9.0175 N.am    1  UNL1       -0.3022
     27 C          61.7422   89.0979    9.6652 C.2     1  UNL1        0.2223
     28 O          61.9576   87.6795    9.2272 O.2     1  UNL1       -0.2751
     29 H          60.5332   90.8598    9.3050 H       1  UNL1        0.1497
     30 C          62.5944   89.6852   10.7510 C.3     1  UNL1        0.0815
     31 C          63.2772   91.0036   10.5381 C.3     1  UNL1        0.0412
     32 C          64.1294   91.5909   11.6238 C.3     1  UNL1        0.1427
     33 O          64.2987   90.8596   12.9225 O.3     1  UNL1       -0.3538
     34 C          63.6159   89.5412   13.1355 C.3     1  UNL1        0.1427
     35 C          62.7637   88.9539   12.0497 C.3     1  UNL1        0.0412
@<TRIPOS>BOND
     1    25    24    1
     2    25    26    1
     3    26    27   am
     4    27    28    2
     5    27    30    1
     6    30    31    1
     7    31    32    1
     8    32    33    1
     9    33    34    1
    10    34    35    1
    11    25     1    1
    12     1     2   ar
    13     2     3   ar
    14     3     4   ar
    15     4     7    1
    16     7     8   am
    17     8     9    2
    18     8    10   am
    19    10    11    1
    20    11    12    1
    21    12    15    1
    22    15    16   ar
    23    16    17   ar
    24    17    18   ar
    25    18    19   ar
    26    19    20    1
    27    19    21   ar
    28    12    13    1
    29     4     5   ar
    30     5     6   ar
    31    35    30    1
    32     6     1   ar
    33    13    10    1
    34    21    15   ar
    35    26    29    1
    36     7    14    1
    37    20    22    1
    38    20    23    1
@<TRIPOS>MOLECULE
*****
 35 38 0 0 0
SMALL
GASTEIGER

@<TRIPOS>ATOM
      1 C          60.0519   88.2758    9.3340 C.ar    1  UNL1       -0.0044
      2 C          60.4669   89.7141    9.2394 C.ar    1  UNL1       -0.0014
      3 C          60.2099   90.4876    7.9802 C.ar    1  UNL1        0.0144
      4 C          59.5380   89.8228    6.8155 C.ar    1  UNL1        0.0516
      5 C          59.1230   88.3844    6.9100 C.ar    1  UNL1        0.0144
      6 C          59.3800   87.6109    8.1692 C.ar    1  UNL1       -0.0014
      7 N          59.2811   90.5963    5.5563 N.am    1  UNL1       -0.2681
      8 C          60.4279   91.1925    4.7951 C.2     1  UNL1        0.3077
      9 O          61.8316   91.0151    5.2931 O.2     1  UNL1       -0.2522
     10 N          60.1709   91.9660    3.5359 N.am    1  UNL1       -0.2632
     11 C          61.0306   92.6840    2.5380 C.3     1  UNL1        0.1010
     12 C          59.8076   93.0599    1.7551 C.3     1  UNL1        0.0636
     13 C          58.9479   92.3420    2.7529 C.3     1  UNL1        0.1010
     14 H          58.3598   90.7128    5.2295 H       1  UNL1        0.1564
     15 C          59.5506   93.8335    0.4959 C.ar    1  UNL1        0.0012
     16 C          59.4921   95.3318    0.5348 C.ar    1  UNL1        0.0948
     17 N          59.2351   96.1053   -0.7244 N.ar    1  UNL1       -0.2414
     18 C          59.0368   95.3805   -2.0226 C.ar    1  UNL1        0.1129
     19 C          59.0953   93.8822   -2.0615 C.ar    1  UNL1        0.0607
     20 N          58.8970   93.1573   -3.3597 N.pl3   1  UNL1       -0.3558
     21 C          59.3523   93.1087   -0.8023 C.ar    1  UNL1        0.0130
     22 H          58.7283   93.6650   -4.1862 H       1  UNL1        0.1424
     23 H          58.9354   92.1739   -3.3853 H       1  UNL1        0.1424
     24 C          59.8017   88.0183   11.9071 C.3     1  UNL1        0.0262
     25 C          60.3088   87.5022   10.5932 C.3     1  UNL1        0.0941
     26 N          61.0730   86.2126   10.5385 N.am    1  UNL1       -0.3022
     27 C          62.3182   86.0433   11.3575 C.2     1  UNL1        0.2223
     28 O          62.7993   87.1636   12.2312 O.2     1  UNL1       -0.2751
     29 H          60.7572   85.4773    9.9650 H       1  UNL1        0.1497
     30 C          63.0823   84.7536   11.3027 C.3     1  UNL1        0.0815
     31 C          63.4756   84.0603   12.5734 C.3     1  UNL1        0.0412
     32 C          64.2397   82.7708   12.5186 C.3     1  UNL1        0.1427
     33 O          64.6106   82.1744   11.1931 O.3     1  UNL1       -0.3538
     34 C          64.2173   82.8677    9.9225 C.3     1  UNL1        0.1427
     35 C          63.4532   84.1573    9.9772 C.3     1  UNL1        0.0412
@<TRIPOS>BOND
     1    25    24    1
     2    25    26    1
     3    26    27   am
     4    27    28    2
     5    27    30    1
     6    30    31    1
     7    31    32    1
     8    32    33    1
     9    33    34    1
    10    34    35    1
    11    25     1    1
    12     1     2   ar
    13     2     3   ar
    14     3     4   ar
    15     4     7    1
    16     7     8   am
    17     8     9    2
    18     8    10   am
    19    10    11    1
    20    11    12    1
    21    12    15    1
    22    15    16   ar
    23    16    17   ar
    24    17    18   ar
    25    18    19   ar
    26    19    20    1
    27    19    21   ar
    28    12    13    1
    29     4     5   ar
    30     5     6   ar
    31    35    30    1
    32     6     1   ar
    33    13    10    1
    34    21    15   ar
    35    26    29    1
    36     7    14    1
    37    20    22    1
    38    20    23    1
