@<TRIPOS>MOLECULE
*****
 36 39 0 0 0
SMALL
GASTEIGER

@<TRIPOS>ATOM
      1 C          60.5341   86.6738    8.1693 C.3     1  UNL1        0.0795
      2 C          59.7890   87.4806    7.1476 C.3     1  UNL1        0.0178
      3 C          59.4510   88.9152    7.4259 C.3     1  UNL1        0.0029
      4 C          59.8581   89.5432    8.7258 C.3     1  UNL1        0.0178
      5 C          60.6032   88.7364    9.7475 C.3     1  UNL1        0.0799
      6 N          60.9412   87.3017    9.4693 N.3     1  UNL1       -0.1583
      7 C          61.0104   89.3644   11.0475 C.3     1  UNL1        0.0237
      8 C          60.9000   89.9893   12.4067 C.3     1  UNL1        0.0019
      9 C          59.6615   89.5738   11.6694 C.3     1  UNL1        0.0019
     10 C          62.5006   89.3729   10.8771 C.3     1  UNL1        0.0866
     11 C          63.2334   90.6755   10.7496 C.2     1  UNL1        0.2258
     12 O          63.0214   91.5402    9.5424 O.2     1  UNL1       -0.2749
     13 N          64.1782   91.1134   11.8292 N.am    1  UNL1       -0.2767
     14 C          64.3901   90.2487   13.0364 C.3     1  UNL1        0.1107
     15 C          65.3349   90.6867   14.1161 C.3     1  UNL1        0.0939
     16 N          66.0677   91.9892   13.9886 N.3     1  UNL1       -0.2699
     17 C          65.8557   92.8539   12.7815 C.3     1  UNL1        0.0939
     18 C          64.9110   92.4161   11.7017 C.3     1  UNL1        0.1107
     19 C          67.0125   92.4271   15.0683 C.3     1  UNL1        0.0726
     20 C          65.8594   92.5802   16.0153 C.3     1  UNL1        0.0186
     21 C          68.1655   92.2740   14.1212 C.3     1  UNL1        0.0186
     22 C          67.9572   92.8650   16.1479 C.3     1  UNL1        0.1516
     23 O          68.9199   93.9866   15.8925 O.3     1  UNL1       -0.3806
     24 H          69.5605   93.7153   15.2165 H       1  UNL1        0.2105
     25 S          61.6863   86.4950   10.4911 S.O2    1  UNL1        0.0632
     26 O          62.8722   86.4300    9.5749 O.2     1  UNL1       -0.1528
     27 O          60.8130   86.3761   11.5136 O.2     1  UNL1       -0.1528
     28 C          62.4315   85.6882   11.5127 C.ar    1  UNL1        0.1222
     29 C          62.4947   84.1947   11.3885 C.ar    1  UNL1        0.0208
     30 C          63.2398   83.3880   12.4102 C.ar    1  UNL1        0.0128
     31 C          63.9218   84.0747   13.5562 C.ar    1  UNL1        0.0578
     32 CL         64.6669   83.2680   14.5779 Cl      1  UNL1       -0.0822
     33 C          63.8586   85.5682   13.6805 C.ar    1  UNL1        0.0128
     34 C          63.1135   86.3750   12.6587 C.ar    1  UNL1        0.0208
     35 C          61.5891   84.8691    6.6266 C.3     1  UNL1        0.0015
     36 C          60.8721   85.2391    7.8911 C.3     1  UNL1        0.0177
@<TRIPOS>BOND
     1    35    36    1
     2     1    36    1
     3     1     2    1
     4     2     3    1
     5     3     4    1
     6     4     5    1
     7     5     7    1
     8     7    10    1
     9    10    11    1
    10    11    12    2
    11    11    13   am
    12    13    14    1
    13    14    15    1
    14    15    16    1
    15    16    19    1
    16    19    20    1
    17    19    21    1
    18    19    22    1
    19    22    23    1
    20    16    17    1
    21    17    18    1
    22     7     8    1
    23     8     9    1
    24     5     6    1
    25     6    25    1
    26    25    26    2
    27    25    27    2
    28    25    28    1
    29    28    29   ar
    30    29    30   ar
    31    30    31   ar
    32    31    32    1
    33    31    33   ar
    34    33    34   ar
    35     6     1    1
    36    34    28   ar
    37     9     7    1
    38    18    13    1
    39    23    24    1
@<TRIPOS>MOLECULE
*****
 36 39 0 0 0
SMALL
GASTEIGER

@<TRIPOS>ATOM
      1 C          63.1797   85.4253   12.5164 C.3     1  UNL1        0.0795
      2 C          64.0073   84.9726   13.6826 C.3     1  UNL1        0.0178
      3 C          64.5522   85.9797   14.6515 C.3     1  UNL1        0.0029
      4 C          64.2695   87.4395   14.4542 C.3     1  UNL1        0.0178
      5 C          63.4419   87.8922   13.2880 C.3     1  UNL1        0.0799
      6 N          62.8970   86.8851   12.3191 N.3     1  UNL1       -0.1583
      7 C          63.1592   89.3521   13.0906 C.3     1  UNL1        0.0237
      8 C          62.3947   90.6386   12.9886 C.3     1  UNL1        0.0019
      9 C          61.6734   89.3599   13.2967 C.3     1  UNL1        0.0019
     10 C          64.5468   89.8512   12.8159 C.3     1  UNL1        0.0866
     11 C          65.0307   91.1155   13.4621 C.2     1  UNL1        0.2258
     12 O          65.0549   91.2317   14.9574 O.2     1  UNL1       -0.2749
     13 N          65.4902   92.2635   12.6131 N.am    1  UNL1       -0.2767
     14 C          65.4659   92.1472   11.1178 C.3     1  UNL1        0.1107
     15 C          65.9255   93.2953   10.2687 C.3     1  UNL1        0.0939
     16 N          66.4093   94.5594   10.9149 N.3     1  UNL1       -0.2699
     17 C          66.4336   94.6758   12.4101 C.3     1  UNL1        0.0939
     18 C          65.9741   93.5277   13.2593 C.3     1  UNL1        0.1107
     19 C          66.8689   95.7075   10.0658 C.3     1  UNL1        0.0726
     20 C          67.3908   94.7422    9.0431 C.3     1  UNL1        0.0186
     21 C          66.3470   96.6726   11.0885 C.3     1  UNL1        0.0186
     22 C          67.3285   96.8554    9.2168 C.3     1  UNL1        0.1516
     23 O          68.0303   96.5934    7.9173 O.3     1  UNL1       -0.3806
     24 H          68.8845   96.1680    8.0912 H       1  UNL1        0.2105
     25 S          62.0694   87.3379   11.1528 S.O2    1  UNL1        0.0632
     26 O          60.8503   86.7324   11.7830 O.2     1  UNL1       -0.1528
     27 O          62.9538   87.9651   10.3486 O.2     1  UNL1       -0.1528
     28 C          61.2417   87.7906    9.9866 C.ar    1  UNL1        0.1222
     29 C          61.0888   89.2548    9.6989 C.ar    1  UNL1        0.0208
     30 C          60.2611   89.7075    8.5327 C.ar    1  UNL1        0.0128
     31 C          59.5864   88.6961    7.6542 C.ar    1  UNL1        0.0578
     32 CL         58.7588   89.1488    6.4880 Cl      1  UNL1       -0.0822
     33 C          59.7393   87.2319    7.9419 C.ar    1  UNL1        0.0128
     34 C          60.5670   86.7791    9.1081 C.ar    1  UNL1        0.0208
     35 C          63.5466   83.3964   10.9357 C.3     1  UNL1        0.0015
     36 C          62.6348   84.4182   11.5475 C.3     1  UNL1        0.0177
@<TRIPOS>BOND
     1    35    36    1
     2     1    36    1
     3     1     2    1
     4     2     3    1
     5     3     4    1
     6     4     5    1
     7     5     7    1
     8     7    10    1
     9    10    11    1
    10    11    12    2
    11    11    13   am
    12    13    14    1
    13    14    15    1
    14    15    16    1
    15    16    19    1
    16    19    20    1
    17    19    21    1
    18    19    22    1
    19    22    23    1
    20    16    17    1
    21    17    18    1
    22     7     8    1
    23     8     9    1
    24     5     6    1
    25     6    25    1
    26    25    26    2
    27    25    27    2
    28    25    28    1
    29    28    29   ar
    30    29    30   ar
    31    30    31   ar
    32    31    32    1
    33    31    33   ar
    34    33    34   ar
    35     6     1    1
    36    34    28   ar
    37     9     7    1
    38    18    13    1
    39    23    24    1
@<TRIPOS>MOLECULE
*****
 36 39 0 0 0
SMALL
GASTEIGER

@<TRIPOS>ATOM
      1 C          65.4451   91.7223   12.8109 C.3     1  UNL1        0.0795
      2 C          65.7353   92.6072   11.6351 C.3     1  UNL1        0.0178
      3 C          64.8251   92.5929   10.4429 C.3     1  UNL1        0.0029
      4 C          63.6247   91.6937   10.4266 C.3     1  UNL1        0.0178
      5 C          63.3344   90.8088   11.6024 C.3     1  UNL1        0.0799
      6 N          64.2446   90.8231   12.7946 N.3     1  UNL1       -0.1583
      7 C          62.1339   89.9096   11.5861 C.3     1  UNL1        0.0237
      8 C          60.7010   89.4727   11.5105 C.3     1  UNL1        0.0019
      9 C          61.0474   90.9287   11.4097 C.3     1  UNL1        0.0019
     10 C          62.8035   88.5783   11.7569 C.3     1  UNL1        0.0866
     11 C          62.5199   87.4667   10.7904 C.2     1  UNL1        0.2258
     12 O          62.1730   87.7820    9.3656 O.2     1  UNL1       -0.2749
     13 N          62.5833   86.0399   11.2488 N.am    1  UNL1       -0.2767
     14 C          62.9302   85.7246   12.6736 C.3     1  UNL1        0.1107
     15 C          62.9936   84.2977   13.1320 C.3     1  UNL1        0.0939
     16 N          62.7100   83.1862   12.1656 N.3     1  UNL1       -0.2699
     17 C          62.3630   83.5014   10.7408 C.3     1  UNL1        0.0939
     18 C          62.2997   84.9283   10.2823 C.3     1  UNL1        0.1107
     19 C          62.7733   81.7593   12.6240 C.3     1  UNL1        0.0726
     20 C          63.0776   81.3223   11.2217 C.3     1  UNL1        0.0186
     21 C          62.4690   82.1964   14.0262 C.3     1  UNL1        0.0186
     22 C          62.8367   80.3325   13.0823 C.3     1  UNL1        0.1516
     23 O          63.3102   80.0104   14.4687 O.3     1  UNL1       -0.3806
     24 H          64.2461   80.2502   14.5546 H       1  UNL1        0.2105
     25 S          63.9543   89.9382   13.9705 S.O2    1  UNL1        0.0632
     26 O          63.1545   91.0391   14.6015 O.2     1  UNL1       -0.1528
     27 O          64.5896   88.7841   13.6755 O.2     1  UNL1       -0.1528
     28 C          63.6640   89.0533   15.1464 C.ar    1  UNL1        0.1222
     29 C          63.9374   87.5808   15.0625 C.ar    1  UNL1        0.0208
     30 C          63.6471   86.6959   16.2383 C.ar    1  UNL1        0.0128
     31 C          63.0834   87.2835   17.4981 C.ar    1  UNL1        0.0578
     32 CL         62.7931   86.3986   18.6739 Cl      1  UNL1       -0.0822
     33 C          62.8101   88.7559   17.5820 C.ar    1  UNL1        0.0128
     34 C          63.1004   89.6409   16.4061 C.ar    1  UNL1        0.0208
     35 C          67.8267   91.9637   13.8207 C.3     1  UNL1        0.0015
     36 C          66.3553   91.7366   14.0031 C.3     1  UNL1        0.0177
@<TRIPOS>BOND
     1    35    36    1
     2     1    36    1
     3     1     2    1
     4     2     3    1
     5     3     4    1
     6     4     5    1
     7     5     7    1
     8     7    10    1
     9    10    11    1
    10    11    12    2
    11    11    13   am
    12    13    14    1
    13    14    15    1
    14    15    16    1
    15    16    19    1
    16    19    20    1
    17    19    21    1
    18    19    22    1
    19    22    23    1
    20    16    17    1
    21    17    18    1
    22     7     8    1
    23     8     9    1
    24     5     6    1
    25     6    25    1
    26    25    26    2
    27    25    27    2
    28    25    28    1
    29    28    29   ar
    30    29    30   ar
    31    30    31   ar
    32    31    32    1
    33    31    33   ar
    34    33    34   ar
    35     6     1    1
    36    34    28   ar
    37     9     7    1
    38    18    13    1
    39    23    24    1
@<TRIPOS>MOLECULE
*****
 36 39 0 0 0
SMALL
GASTEIGER

@<TRIPOS>ATOM
      1 C          60.6700   86.7447    8.3546 C.3     1  UNL1        0.0795
      2 C          59.9492   87.5823    7.3403 C.3     1  UNL1        0.0178
      3 C          59.6069   89.0090    7.6526 C.3     1  UNL1        0.0029
      4 C          59.9854   89.5980    8.9791 C.3     1  UNL1        0.0178
      5 C          60.7062   88.7603    9.9934 C.3     1  UNL1        0.0799
      6 N          61.0485   87.3337    9.6811 N.3     1  UNL1       -0.1583
      7 C          61.0847   89.3493   11.3200 C.3     1  UNL1        0.0237
      8 C          60.9449   89.9278   12.6969 C.3     1  UNL1        0.0019
      9 C          59.7235   89.5237   11.9255 C.3     1  UNL1        0.0019
     10 C          62.5774   89.3795   11.1751 C.3     1  UNL1        0.0866
     11 C          63.4156   90.0916   12.1951 C.2     1  UNL1        0.2258
     12 O          63.4621   89.5919   13.6087 O.2     1  UNL1       -0.2749
     13 N          64.2074   91.3032   11.8015 N.am    1  UNL1       -0.2767
     14 C          64.1609   91.8029   10.3879 C.3     1  UNL1        0.1107
     15 C          64.9527   93.0146    9.9944 C.3     1  UNL1        0.0939
     16 N          65.7909   93.7266   11.0142 N.3     1  UNL1       -0.2699
     17 C          65.8374   93.2271   12.4278 C.3     1  UNL1        0.0939
     18 C          65.0456   92.0153   12.8215 C.3     1  UNL1        0.1107
     19 C          66.5827   94.9384   10.6207 C.3     1  UNL1        0.0726
     20 C          67.0626   94.2255    9.3913 C.3     1  UNL1        0.0186
     21 C          66.1026   95.6512   11.8501 C.3     1  UNL1        0.0186
     22 C          67.3744   96.1501   10.2271 C.3     1  UNL1        0.1516
     23 O          67.7054   96.3937    8.7845 O.3     1  UNL1       -0.3806
     24 H          68.3040   95.6990    8.4684 H       1  UNL1        0.2105
     25 S          61.7693   86.4961   10.6955 S.O2    1  UNL1        0.0632
     26 O          62.9508   86.3999    9.7764 O.2     1  UNL1       -0.1528
     27 O          60.8945   86.3976   11.7189 O.2     1  UNL1       -0.1528
     28 C          62.4902   85.6585   11.7097 C.ar    1  UNL1        0.1222
     29 C          62.5273   84.1663   11.5603 C.ar    1  UNL1        0.0208
     30 C          63.2481   83.3287   12.5746 C.ar    1  UNL1        0.0128
     31 C          63.9318   83.9832   13.7383 C.ar    1  UNL1        0.0578
     32 CL         64.6527   83.1456   14.7526 Cl      1  UNL1       -0.0822
     33 C          63.8947   85.4752   13.8877 C.ar    1  UNL1        0.0128
     34 C          63.1739   86.3129   12.8734 C.ar    1  UNL1        0.0208
     35 C          61.6750   84.9732    6.7415 C.3     1  UNL1        0.0015
     36 C          61.0123   85.3181    8.0423 C.3     1  UNL1        0.0177
@<TRIPOS>BOND
     1    35    36    1
     2     1    36    1
     3     1     2    1
     4     2     3    1
     5     3     4    1
     6     4     5    1
     7     5     7    1
     8     7    10    1
     9    10    11    1
    10    11    12    2
    11    11    13   am
    12    13    14    1
    13    14    15    1
    14    15    16    1
    15    16    19    1
    16    19    20    1
    17    19    21    1
    18    19    22    1
    19    22    23    1
    20    16    17    1
    21    17    18    1
    22     7     8    1
    23     8     9    1
    24     5     6    1
    25     6    25    1
    26    25    26    2
    27    25    27    2
    28    25    28    1
    29    28    29   ar
    30    29    30   ar
    31    30    31   ar
    32    31    32    1
    33    31    33   ar
    34    33    34   ar
    35     6     1    1
    36    34    28   ar
    37     9     7    1
    38    18    13    1
    39    23    24    1
@<TRIPOS>MOLECULE
*****
 36 39 0 0 0
SMALL
GASTEIGER

@<TRIPOS>ATOM
      1 C          63.5367   84.4460   10.5018 C.3     1  UNL1        0.0795
      2 C          63.5108   84.3009    9.0091 C.3     1  UNL1        0.0178
      3 C          62.7781   85.3058    8.1705 C.3     1  UNL1        0.0029
      4 C          62.0712   86.4558    8.8246 C.3     1  UNL1        0.0178
      5 C          62.0971   86.6008   10.3173 C.3     1  UNL1        0.0799
      6 N          62.8299   85.5959   11.1559 N.3     1  UNL1       -0.1583
      7 C          61.3903   87.7508   10.9715 C.3     1  UNL1        0.0237
      8 C          60.2805   88.6685   11.3912 C.3     1  UNL1        0.0019
      9 C          59.9843   87.4813   10.5235 C.3     1  UNL1        0.0019
     10 C          62.5508   88.4197   11.6466 C.3     1  UNL1        0.0866
     11 C          63.0364   89.7522   11.1580 C.2     1  UNL1        0.2258
     12 O          62.5772   90.2768    9.8299 O.2     1  UNL1       -0.2749
     13 N          63.9812   90.5600   11.9974 N.am    1  UNL1       -0.2767
     14 C          64.4404   90.0354   13.3256 C.3     1  UNL1        0.1107
     15 C          65.3852   90.8433   14.1650 C.3     1  UNL1        0.0939
     16 N          65.8708   92.1757   13.6764 N.3     1  UNL1       -0.2699
     17 C          65.4117   92.7003   12.3483 C.3     1  UNL1        0.0939
     18 C          64.4668   91.8925   11.5088 C.3     1  UNL1        0.1107
     19 C          66.8157   92.9836   14.5159 C.3     1  UNL1        0.0726
     20 C          66.5114   94.1980   13.6897 C.3     1  UNL1        0.0186
     21 C          67.1199   91.7691   15.3421 C.3     1  UNL1        0.0186
     22 C          67.7605   93.7914   15.3553 C.3     1  UNL1        0.1516
     23 O          68.9952   93.1535   15.9197 O.3     1  UNL1       -0.3806
     24 H          68.7424   92.4760   16.5662 H       1  UNL1        0.2105
     25 S          62.8558   85.7410   12.6487 S.O2    1  UNL1        0.0632
     26 O          61.6485   84.8573   12.7555 O.2     1  UNL1       -0.1528
     27 O          63.9157   86.5443   12.8805 O.2     1  UNL1       -0.1528
     28 C          62.8816   85.8861   14.1414 C.ar    1  UNL1        0.1222
     29 C          62.1755   84.8830   15.0048 C.ar    1  UNL1        0.0208
     30 C          62.2013   85.0281   16.4975 C.ar    1  UNL1        0.0128
     31 C          62.9333   86.1762   17.1269 C.ar    1  UNL1        0.0578
     32 CL         62.9591   86.3212   18.6196 Cl      1  UNL1       -0.0822
     33 C          63.6394   87.1791   16.2636 C.ar    1  UNL1        0.0128
     34 C          63.6136   87.0341   14.7708 C.ar    1  UNL1        0.0208
     35 C          63.6340   82.1187   11.6526 C.3     1  UNL1        0.0015
     36 C          64.2695   83.4410   11.3404 C.3     1  UNL1        0.0177
@<TRIPOS>BOND
     1    35    36    1
     2     1    36    1
     3     1     2    1
     4     2     3    1
     5     3     4    1
     6     4     5    1
     7     5     7    1
     8     7    10    1
     9    10    11    1
    10    11    12    2
    11    11    13   am
    12    13    14    1
    13    14    15    1
    14    15    16    1
    15    16    19    1
    16    19    20    1
    17    19    21    1
    18    19    22    1
    19    22    23    1
    20    16    17    1
    21    17    18    1
    22     7     8    1
    23     8     9    1
    24     5     6    1
    25     6    25    1
    26    25    26    2
    27    25    27    2
    28    25    28    1
    29    28    29   ar
    30    29    30   ar
    31    30    31   ar
    32    31    32    1
    33    31    33   ar
    34    33    34   ar
    35     6     1    1
    36    34    28   ar
    37     9     7    1
    38    18    13    1
    39    23    24    1
@<TRIPOS>MOLECULE
*****
 36 39 0 0 0
SMALL
GASTEIGER

@<TRIPOS>ATOM
      1 C          64.2869   91.6364   11.1208 C.3     1  UNL1        0.0795
      2 C          63.1331   91.0975   10.3282 C.3     1  UNL1        0.0178
      3 C          62.1896   90.1124   10.9520 C.3     1  UNL1        0.0029
      4 C          62.3998   89.6661   12.3686 C.3     1  UNL1        0.0178
      5 C          63.5536   90.2050   13.1612 C.3     1  UNL1        0.0799
      6 N          64.4971   91.1902   12.5374 N.3     1  UNL1       -0.1583
      7 C          63.7639   89.7588   14.5778 C.3     1  UNL1        0.0237
      8 C          63.8411   89.8097   16.0750 C.3     1  UNL1        0.0019
      9 C          63.4537   91.0354   15.3019 C.3     1  UNL1        0.0019
     10 C          64.1471   88.3273   14.3457 C.3     1  UNL1        0.0866
     11 C          63.6687   87.2609   15.2860 C.2     1  UNL1        0.2258
     12 O          63.3850   87.5976   16.7199 O.2     1  UNL1       -0.2749
     13 N          63.4742   85.8579   14.7924 N.am    1  UNL1       -0.2767
     14 C          63.7579   85.5212   13.3585 C.3     1  UNL1        0.1107
     15 C          63.5633   84.1181   12.8649 C.3     1  UNL1        0.0939
     16 N          63.0850   83.0519   13.8051 N.3     1  UNL1       -0.2699
     17 C          62.8012   83.3885   15.2390 C.3     1  UNL1        0.0939
     18 C          62.9958   84.7916   15.7327 C.3     1  UNL1        0.1107
     19 C          62.8904   81.6488   13.3115 C.3     1  UNL1        0.0726
     20 C          64.1081   81.7843   12.4461 C.3     1  UNL1        0.0186
     21 C          61.6727   81.5134   14.1769 C.3     1  UNL1        0.0186
     22 C          62.6958   80.2458   12.8179 C.3     1  UNL1        0.1516
     23 O          62.7503   79.9536   11.3477 O.3     1  UNL1       -0.3806
     24 H          62.0043   80.3867   10.9041 H       1  UNL1        0.2105
     25 S          65.6510   91.7291   13.3301 S.O2    1  UNL1        0.0632
     26 O          65.0610   93.1060   13.2526 O.2     1  UNL1       -0.1528
     27 O          66.4174   90.6440   13.5703 O.2     1  UNL1       -0.1528
     28 C          66.8047   92.2680   14.1228 C.ar    1  UNL1        0.1222
     29 C          68.2116   91.9531   13.7084 C.ar    1  UNL1        0.0208
     30 C          69.3653   92.4920   14.5011 C.ar    1  UNL1        0.0128
     31 C          69.1123   93.3458   15.7082 C.ar    1  UNL1        0.0578
     32 CL         70.2660   93.8847   16.5009 Cl      1  UNL1       -0.0822
     33 C          67.7055   93.6607   16.1225 C.ar    1  UNL1        0.0128
     34 C          66.5517   93.1218   15.3298 C.ar    1  UNL1        0.0208
     35 C          66.6717   92.2569   10.2975 C.3     1  UNL1        0.0015
     36 C          65.2305   92.6216   10.4969 C.3     1  UNL1        0.0177
@<TRIPOS>BOND
     1    35    36    1
     2     1    36    1
     3     1     2    1
     4     2     3    1
     5     3     4    1
     6     4     5    1
     7     5     7    1
     8     7    10    1
     9    10    11    1
    10    11    12    2
    11    11    13   am
    12    13    14    1
    13    14    15    1
    14    15    16    1
    15    16    19    1
    16    19    20    1
    17    19    21    1
    18    19    22    1
    19    22    23    1
    20    16    17    1
    21    17    18    1
    22     7     8    1
    23     8     9    1
    24     5     6    1
    25     6    25    1
    26    25    26    2
    27    25    27    2
    28    25    28    1
    29    28    29   ar
    30    29    30   ar
    31    30    31   ar
    32    31    32    1
    33    31    33   ar
    34    33    34   ar
    35     6     1    1
    36    34    28   ar
    37     9     7    1
    38    18    13    1
    39    23    24    1
@<TRIPOS>MOLECULE
*****
 36 39 0 0 0
SMALL
GASTEIGER

@<TRIPOS>ATOM
      1 C          63.8132   95.0186   -0.2100 C.3     1  UNL1        0.0795
      2 C          64.3559   95.8303   -1.3486 C.3     1  UNL1        0.0178
      3 C          63.4318   96.3365   -2.4162 C.3     1  UNL1        0.0029
      4 C          61.9650   96.0310   -2.3452 C.3     1  UNL1        0.0178
      5 C          61.4223   95.2193   -1.2065 C.3     1  UNL1        0.0799
      6 N          62.3464   94.7131   -0.1389 N.3     1  UNL1       -0.1583
      7 C          59.9554   94.9138   -1.1354 C.3     1  UNL1        0.0237
      8 C          58.5094   95.0247   -0.7522 C.3     1  UNL1        0.0019
      9 C          59.5060   96.0071   -0.2119 C.3     1  UNL1        0.0019
     10 C          59.8954   93.7143   -2.0342 C.3     1  UNL1        0.0866
     11 C          59.3430   93.8446   -3.4227 C.2     1  UNL1        0.2258
     12 O          59.9080   94.8688   -4.3617 O.2     1  UNL1       -0.2749
     13 N          58.2256   92.9506   -3.8722 N.am    1  UNL1       -0.2767
     14 C          57.6605   91.9263   -2.9332 C.3     1  UNL1        0.1107
     15 C          56.5431   91.0323   -3.3828 C.3     1  UNL1        0.0939
     16 N          55.9907   91.1625   -4.7711 N.3     1  UNL1       -0.2699
     17 C          56.5556   92.1867   -5.7102 C.3     1  UNL1        0.0939
     18 C          57.6731   93.0808   -5.2607 C.3     1  UNL1        0.1107
     19 C          54.8732   90.2685   -5.2207 C.3     1  UNL1        0.0726
     20 C          54.7900   89.6799   -3.8435 C.3     1  UNL1        0.0186
     21 C          54.9564   90.8571   -6.5978 C.3     1  UNL1        0.0186
     22 C          53.7558   89.3745   -5.6702 C.3     1  UNL1        0.1516
     23 O          53.8491   87.8926   -5.4578 O.3     1  UNL1       -0.3806
     24 H          54.5712   87.5335   -5.9969 H       1  UNL1        0.2105
     25 S          61.8037   93.9013    0.9998 S.O2    1  UNL1        0.0632
     26 O          61.6804   95.1458    1.8281 O.2     1  UNL1       -0.1528
     27 O          61.7931   92.6379    0.5243 O.2     1  UNL1       -0.1528
     28 C          61.2609   93.0897    2.1384 C.ar    1  UNL1        0.1222
     29 C          59.8055   93.1727    2.4919 C.ar    1  UNL1        0.0208
     30 C          59.2627   92.3610    3.6305 C.ar    1  UNL1        0.0128
     31 C          60.1754   91.4663    4.4158 C.ar    1  UNL1        0.0578
     32 CL         59.6326   90.6546    5.5545 Cl      1  UNL1       -0.0822
     33 C          61.6307   91.3833    4.0624 C.ar    1  UNL1        0.0128
     34 C          62.1736   92.1950    2.9237 C.ar    1  UNL1        0.0208
     35 C          65.4208   93.1875    0.6916 C.3     1  UNL1        0.0015
     36 C          64.7373   94.5124    0.8576 C.3     1  UNL1        0.0177
@<TRIPOS>BOND
     1    35    36    1
     2     1    36    1
     3     1     2    1
     4     2     3    1
     5     3     4    1
     6     4     5    1
     7     5     7    1
     8     7    10    1
     9    10    11    1
    10    11    12    2
    11    11    13   am
    12    13    14    1
    13    14    15    1
    14    15    16    1
    15    16    19    1
    16    19    20    1
    17    19    21    1
    18    19    22    1
    19    22    23    1
    20    16    17    1
    21    17    18    1
    22     7     8    1
    23     8     9    1
    24     5     6    1
    25     6    25    1
    26    25    26    2
    27    25    27    2
    28    25    28    1
    29    28    29   ar
    30    29    30   ar
    31    30    31   ar
    32    31    32    1
    33    31    33   ar
    34    33    34   ar
    35     6     1    1
    36    34    28   ar
    37     9     7    1
    38    18    13    1
    39    23    24    1
