@<TRIPOS>MOLECULE
*****
 21 23 0 0 0
SMALL
GASTEIGER

@<TRIPOS>ATOM
      1 C          60.3898   87.8008   11.0223 C.3     1  UNL1        0.0534
      2 C          61.3369   86.6375   11.0269 C.ar    1  UNL1        0.0741
      3 N          61.9669   86.0183   12.2392 N.ar    1  UNL1       -0.2283
      4 C          62.8395   84.8873   11.7816 C.ar    1  UNL1        0.1818
      5 C          63.7050   83.9198   12.5331 C.ar    1  UNL1        0.1733
      6 C          64.4798   82.8726   11.7896 C.ar    1  UNL1        0.0416
      7 C          64.3892   82.7928   10.2945 C.ar    1  UNL1        0.0222
      8 C          63.5237   83.7603    9.5429 C.ar    1  UNL1        0.0813
      9 N          62.7489   84.8076   10.2865 N.ar    1  UNL1       -0.2894
     10 C          61.8202   85.8892    9.8201 C.ar    1  UNL1        0.0716
     11 O          63.7957   83.9996   14.0283 O.3     1  UNL1       -0.4676
     12 C          64.7358   84.9755   14.6716 C.3     1  UNL1        0.2321
     13 C          64.1981   86.2073   15.3376 C.ar    1  UNL1        0.0212
     14 C          63.4364   86.0923   16.6247 C.ar    1  UNL1       -0.0007
     15 C          62.8987   87.3241   17.2906 C.ar    1  UNL1       -0.0002
     16 C          63.1228   88.6709   16.6695 C.ar    1  UNL1       -0.0000
     17 C          63.8844   88.7860   15.3825 C.ar    1  UNL1       -0.0002
     18 C          64.4222   87.5542   14.7165 C.ar    1  UNL1       -0.0007
     19 C          61.4413   86.1728    8.3967 C.3     1  UNL1        0.1504
     20 C          60.0145   86.4751    8.0463 C.1     1  UNL1        0.0796
     21 N          58.5876   86.7776    7.6959 N.1     1  UNL1       -0.1955
@<TRIPOS>BOND
     1     1     2    1
     2     2     3   ar
     3     3     4   ar
     4     4     5   ar
     5     5    11    1
     6    11    12    1
     7    12    13    1
     8    13    14   ar
     9    14    15   ar
    10    15    16   ar
    11    16    17   ar
    12    17    18   ar
    13     5     6   ar
    14     6     7   ar
    15     7     8   ar
    16     8     9   ar
    17     9    10   ar
    18    10    19    1
    19    19    20    1
    20    20    21    3
    21    10     2   ar
    22     9     4   ar
    23    18    13   ar
@<TRIPOS>MOLECULE
*****
 21 23 0 0 0
SMALL
GASTEIGER

@<TRIPOS>ATOM
      1 C          63.8609   90.4420   16.4441 C.3     1  UNL1        0.0534
      2 C          63.6179   90.4944   14.9647 C.ar    1  UNL1        0.0741
      3 N          62.5629   89.7343   14.2171 N.ar    1  UNL1       -0.2283
      4 C          62.6803   90.0863   12.7636 C.ar    1  UNL1        0.1818
      5 C          61.9061   89.6428   11.5578 C.ar    1  UNL1        0.1733
      6 C          62.2595   90.1771   10.2015 C.ar    1  UNL1        0.0416
      7 C          63.3870   91.1548   10.0510 C.ar    1  UNL1        0.0222
      8 C          64.1612   91.5983   11.2568 C.ar    1  UNL1        0.0813
      9 N          63.8078   91.0640   12.6131 N.ar    1  UNL1       -0.2894
     10 C          64.3873   91.3163   13.9734 C.ar    1  UNL1        0.0716
     11 O          60.7785   88.6651   11.7084 O.3     1  UNL1       -0.4676
     12 C          60.4781   87.6915   10.6076 C.3     1  UNL1        0.2321
     13 C          61.4421   86.5837   10.3023 C.ar    1  UNL1        0.0212
     14 C          61.9767   86.4168    8.9106 C.ar    1  UNL1       -0.0007
     15 C          62.9408   85.3090    8.6053 C.ar    1  UNL1       -0.0002
     16 C          63.3704   84.3680    9.6915 C.ar    1  UNL1       -0.0000
     17 C          62.8359   84.5348   11.0831 C.ar    1  UNL1       -0.0002
     18 C          61.8717   85.6426   11.3885 C.ar    1  UNL1       -0.0007
     19 C          65.5347   92.2299   14.2874 C.3     1  UNL1        0.1504
     20 C          66.8618   92.0243   13.6192 C.1     1  UNL1        0.0796
     21 N          68.1890   91.8187   12.9509 N.1     1  UNL1       -0.1955
@<TRIPOS>BOND
     1     1     2    1
     2     2     3   ar
     3     3     4   ar
     4     4     5   ar
     5     5    11    1
     6    11    12    1
     7    12    13    1
     8    13    14   ar
     9    14    15   ar
    10    15    16   ar
    11    16    17   ar
    12    17    18   ar
    13     5     6   ar
    14     6     7   ar
    15     7     8   ar
    16     8     9   ar
    17     9    10   ar
    18    10    19    1
    19    19    20    1
    20    20    21    3
    21    10     2   ar
    22     9     4   ar
    23    18    13   ar
@<TRIPOS>MOLECULE
*****
 21 23 0 0 0
SMALL
GASTEIGER

@<TRIPOS>ATOM
      1 C          62.3704   84.4634   11.4607 C.3     1  UNL1        0.0534
      2 C          62.4837   85.9576   11.3928 C.ar    1  UNL1        0.0741
      3 N          62.9955   86.8534   12.4816 N.ar    1  UNL1       -0.2283
      4 C          62.9332   88.2678   11.9858 C.ar    1  UNL1        0.1818
      5 C          63.3066   89.5726   12.6246 C.ar    1  UNL1        0.1733
      6 C          63.1296   90.8558   11.8682 C.ar    1  UNL1        0.0416
      7 C          62.5793   90.8341   10.4730 C.ar    1  UNL1        0.0222
      8 C          62.2059   89.5292    9.8342 C.ar    1  UNL1        0.0813
      9 N          62.3829   88.2461   10.5906 N.ar    1  UNL1       -0.2894
     10 C          62.1051   86.8184   10.2241 C.ar    1  UNL1        0.0716
     11 O          63.8569   89.5943   14.0199 O.3     1  UNL1       -0.4676
     12 C          64.0349   90.9004   14.7357 C.3     1  UNL1        0.2321
     13 C          65.3980   91.5171   14.8430 C.ar    1  UNL1        0.0212
     14 C          65.7653   92.3183   16.0569 C.ar    1  UNL1       -0.0007
     15 C          67.1284   92.9350   16.1642 C.ar    1  UNL1       -0.0002
     16 C          68.1243   92.7506   15.0578 C.ar    1  UNL1       -0.0000
     17 C          67.7571   91.9495   13.8440 C.ar    1  UNL1       -0.0002
     18 C          66.3939   91.3328   13.7366 C.ar    1  UNL1       -0.0007
     19 C          61.5467   86.3360    8.9181 C.3     1  UNL1        0.1504
     20 C          60.1228   86.6363    8.5546 C.1     1  UNL1        0.0796
     21 N          58.6988   86.9365    8.1910 N.1     1  UNL1       -0.1955
@<TRIPOS>BOND
     1     1     2    1
     2     2     3   ar
     3     3     4   ar
     4     4     5   ar
     5     5    11    1
     6    11    12    1
     7    12    13    1
     8    13    14   ar
     9    14    15   ar
    10    15    16   ar
    11    16    17   ar
    12    17    18   ar
    13     5     6   ar
    14     6     7   ar
    15     7     8   ar
    16     8     9   ar
    17     9    10   ar
    18    10    19    1
    19    19    20    1
    20    20    21    3
    21    10     2   ar
    22     9     4   ar
    23    18    13   ar
@<TRIPOS>MOLECULE
*****
 21 23 0 0 0
SMALL
GASTEIGER

@<TRIPOS>ATOM
      1 C          62.6837   83.9231   14.8315 C.3     1  UNL1        0.0534
      2 C          62.6992   84.3156   13.3838 C.ar    1  UNL1        0.0741
      3 N          62.1204   85.5724   12.8047 N.ar    1  UNL1       -0.2283
      4 C          62.3598   85.5536   11.3240 C.ar    1  UNL1        0.1818
      5 C          62.0099   86.5277   10.2383 C.ar    1  UNL1        0.1733
      6 C          62.3867   86.2333    8.8166 C.ar    1  UNL1        0.0416
      7 C          63.1133   84.9649    8.4806 C.ar    1  UNL1        0.0222
      8 C          63.4633   83.9908    9.5663 C.ar    1  UNL1        0.0813
      9 N          63.0865   84.2852   10.9880 N.ar    1  UNL1       -0.2894
     10 C          63.2963   83.5200   12.2610 C.ar    1  UNL1        0.0716
     11 O          61.2832   87.7962   10.5744 O.3     1  UNL1       -0.4676
     12 C          61.7599   89.1041   10.0158 C.3     1  UNL1        0.2321
     13 C          62.7102   89.9549   10.8051 C.ar    1  UNL1        0.0212
     14 C          63.0164   89.6109   12.2327 C.ar    1  UNL1       -0.0007
     15 C          63.9667   90.4617   13.0219 C.ar    1  UNL1       -0.0002
     16 C          64.6110   91.6565   12.3836 C.ar    1  UNL1       -0.0000
     17 C          64.3049   92.0005   10.9561 C.ar    1  UNL1       -0.0002
     18 C          63.3545   91.1497   10.1668 C.ar    1  UNL1       -0.0007
     19 C          63.9826   82.1924   12.3888 C.3     1  UNL1        0.1504
     20 C          63.1951   80.9748   12.7726 C.1     1  UNL1        0.0796
     21 N          62.4076   79.7572   13.1565 N.1     1  UNL1       -0.1955
@<TRIPOS>BOND
     1     1     2    1
     2     2     3   ar
     3     3     4   ar
     4     4     5   ar
     5     5    11    1
     6    11    12    1
     7    12    13    1
     8    13    14   ar
     9    14    15   ar
    10    15    16   ar
    11    16    17   ar
    12    17    18   ar
    13     5     6   ar
    14     6     7   ar
    15     7     8   ar
    16     8     9   ar
    17     9    10   ar
    18    10    19    1
    19    19    20    1
    20    20    21    3
    21    10     2   ar
    22     9     4   ar
    23    18    13   ar
@<TRIPOS>MOLECULE
*****
 21 23 0 0 0
SMALL
GASTEIGER

@<TRIPOS>ATOM
      1 C          66.5305   94.7933   10.8747 C.3     1  UNL1        0.0534
      2 C          65.8044   93.6164   11.4559 C.ar    1  UNL1        0.0741
      3 N          64.8868   92.6917   10.7124 N.ar    1  UNL1       -0.2283
      4 C          64.3838   91.6613   11.6796 C.ar    1  UNL1        0.1818
      5 C          63.4516   90.4981   11.5122 C.ar    1  UNL1        0.1733
      6 C          63.1262   89.6229   12.6861 C.ar    1  UNL1        0.0416
      7 C          63.7329   89.9108   14.0273 C.ar    1  UNL1        0.0222
      8 C          64.6651   91.0740   14.1946 C.ar    1  UNL1        0.0813
      9 N          64.9905   91.9493   13.0208 N.ar    1  UNL1       -0.2894
     10 C          65.8686   93.1575   12.8825 C.ar    1  UNL1        0.0716
     11 O          62.8448   90.2102   10.1709 O.3     1  UNL1       -0.4676
     12 C          61.4064   89.7965   10.0717 C.3     1  UNL1        0.2321
     13 C          61.0339   88.5520    9.3219 C.ar    1  UNL1        0.0212
     14 C          59.7880   88.5239    8.4870 C.ar    1  UNL1       -0.0007
     15 C          59.4155   87.2793    7.7372 C.ar    1  UNL1       -0.0002
     16 C          60.2890   86.0628    7.8221 C.ar    1  UNL1       -0.0000
     17 C          61.5349   86.0909    8.6569 C.ar    1  UNL1       -0.0002
     18 C          61.9074   87.3355    9.4068 C.ar    1  UNL1       -0.0007
     19 C          66.6700   93.7950   13.9786 C.3     1  UNL1        0.1504
     20 C          67.5019   92.9441   14.8917 C.1     1  UNL1        0.0796
     21 N          68.3338   92.0931   15.8049 N.1     1  UNL1       -0.1955
@<TRIPOS>BOND
     1     1     2    1
     2     2     3   ar
     3     3     4   ar
     4     4     5   ar
     5     5    11    1
     6    11    12    1
     7    12    13    1
     8    13    14   ar
     9    14    15   ar
    10    15    16   ar
    11    16    17   ar
    12    17    18   ar
    13     5     6   ar
    14     6     7   ar
    15     7     8   ar
    16     8     9   ar
    17     9    10   ar
    18    10    19    1
    19    19    20    1
    20    20    21    3
    21    10     2   ar
    22     9     4   ar
    23    18    13   ar
@<TRIPOS>MOLECULE
*****
 21 23 0 0 0
SMALL
GASTEIGER

@<TRIPOS>ATOM
      1 C          63.4859   89.9038   16.5489 C.3     1  UNL1        0.0534
      2 C          63.7073   90.4009   15.1510 C.ar    1  UNL1        0.0741
      3 N          62.8965   90.0303   13.9447 N.ar    1  UNL1       -0.2283
      4 C          63.4665   90.7562   12.7622 C.ar    1  UNL1        0.1818
      5 C          63.0767   90.7771   11.3139 C.ar    1  UNL1        0.1733
      6 C          63.8499   91.6172   10.3411 C.ar    1  UNL1        0.0416
      7 C          65.0129   92.4364   10.8167 C.ar    1  UNL1        0.0222
      8 C          65.4028   92.4155   12.2650 C.ar    1  UNL1        0.0813
      9 N          64.6295   91.5755   13.2378 N.ar    1  UNL1       -0.2894
     10 C          64.7784   91.3559   14.7141 C.ar    1  UNL1        0.0716
     11 O          61.9136   89.9578   10.8384 O.3     1  UNL1       -0.4676
     12 C          62.1332   88.5573   10.3482 C.3     1  UNL1        0.2321
     13 C          61.1977   87.9605    9.3390 C.ar    1  UNL1        0.0212
     14 C          61.3577   86.5283    8.9228 C.ar    1  UNL1       -0.0007
     15 C          60.4221   85.9315    7.9136 C.ar    1  UNL1       -0.0002
     16 C          59.3265   86.7669    7.3205 C.ar    1  UNL1       -0.0000
     17 C          59.1665   88.1991    7.7366 C.ar    1  UNL1       -0.0002
     18 C          60.1021   88.7960    8.7459 C.ar    1  UNL1       -0.0007
     19 C          65.8161   91.9814   15.5983 C.3     1  UNL1        0.1504
     20 C          67.1874   92.2651   15.0606 C.1     1  UNL1        0.0796
     21 N          68.5587   92.5488   14.5229 N.1     1  UNL1       -0.1955
@<TRIPOS>BOND
     1     1     2    1
     2     2     3   ar
     3     3     4   ar
     4     4     5   ar
     5     5    11    1
     6    11    12    1
     7    12    13    1
     8    13    14   ar
     9    14    15   ar
    10    15    16   ar
    11    16    17   ar
    12    17    18   ar
    13     5     6   ar
    14     6     7   ar
    15     7     8   ar
    16     8     9   ar
    17     9    10   ar
    18    10    19    1
    19    19    20    1
    20    20    21    3
    21    10     2   ar
    22     9     4   ar
    23    18    13   ar
@<TRIPOS>MOLECULE
*****
 21 23 0 0 0
SMALL
GASTEIGER

@<TRIPOS>ATOM
      1 C          64.1372   91.9539   10.3353 C.3     1  UNL1        0.0534
      2 C          64.9778   92.0574   11.5734 C.ar    1  UNL1        0.0741
      3 N          64.4912   91.9091   12.9845 N.ar    1  UNL1       -0.2283
      4 C          65.6653   92.0875   13.9009 C.ar    1  UNL1        0.1818
      5 C          65.7871   92.0478   15.3954 C.ar    1  UNL1        0.1733
      6 C          67.1212   92.2668   16.0452 C.ar    1  UNL1        0.0416
      7 C          68.3334   92.5254   15.2004 C.ar    1  UNL1        0.0222
      8 C          68.2116   92.5650   13.7059 C.ar    1  UNL1        0.0813
      9 N          66.8775   92.3461   13.0561 N.ar    1  UNL1       -0.2894
     10 C          66.4526   92.3275   11.6177 C.ar    1  UNL1        0.0716
     11 O          64.5748   91.7892   16.2401 O.3     1  UNL1       -0.4676
     12 C          63.4717   90.9152   15.7212 C.3     1  UNL1        0.2321
     13 C          63.6023   89.4225   15.7898 C.ar    1  UNL1        0.0212
     14 C          64.3221   88.6818   14.7020 C.ar    1  UNL1       -0.0007
     15 C          64.4527   87.1891   14.7705 C.ar    1  UNL1       -0.0002
     16 C          63.8636   86.4370   15.9270 C.ar    1  UNL1       -0.0000
     17 C          63.1438   87.1776   17.0148 C.ar    1  UNL1       -0.0002
     18 C          63.0132   88.6704   16.9462 C.ar    1  UNL1       -0.0007
     19 C          67.3458   92.5414   10.4318 C.3     1  UNL1        0.1504
     20 C          67.3661   93.8713    9.7383 C.1     1  UNL1        0.0796
     21 N          67.3864   95.2013    9.0447 N.1     1  UNL1       -0.1955
@<TRIPOS>BOND
     1     1     2    1
     2     2     3   ar
     3     3     4   ar
     4     4     5   ar
     5     5    11    1
     6    11    12    1
     7    12    13    1
     8    13    14   ar
     9    14    15   ar
    10    15    16   ar
    11    16    17   ar
    12    17    18   ar
    13     5     6   ar
    14     6     7   ar
    15     7     8   ar
    16     8     9   ar
    17     9    10   ar
    18    10    19    1
    19    19    20    1
    20    20    21    3
    21    10     2   ar
    22     9     4   ar
    23    18    13   ar
@<TRIPOS>MOLECULE
*****
 21 23 0 0 0
SMALL
GASTEIGER

@<TRIPOS>ATOM
      1 C          60.9646   86.3634    9.5823 C.3     1  UNL1        0.0534
      2 C          61.7918   86.7868   10.7599 C.ar    1  UNL1        0.0741
      3 N          62.3444   85.8812   11.8204 N.ar    1  UNL1       -0.2283
      4 C          63.1057   86.7249   12.7996 C.ar    1  UNL1        0.1818
      5 C          63.8631   86.3780   14.0470 C.ar    1  UNL1        0.1733
      6 C          64.5384   87.4580   14.8391 C.ar    1  UNL1        0.0416
      7 C          64.4564   88.8849   14.3838 C.ar    1  UNL1        0.0222
      8 C          63.6990   89.2317   13.1363 C.ar    1  UNL1        0.0813
      9 N          63.0237   88.1517   12.3442 N.ar    1  UNL1       -0.2894
     10 C          62.2117   88.1899   11.0836 C.ar    1  UNL1        0.0716
     11 O          63.9451   84.9511   14.5024 O.3     1  UNL1       -0.4676
     12 C          64.8343   83.9832   13.7796 C.3     1  UNL1        0.2321
     13 C          64.2407   82.9828   12.8326 C.ar    1  UNL1        0.0212
     14 C          64.4972   83.1006   11.3594 C.ar    1  UNL1       -0.0007
     15 C          63.9036   82.1002   10.4124 C.ar    1  UNL1       -0.0002
     16 C          63.0536   80.9819   10.9386 C.ar    1  UNL1       -0.0000
     17 C          62.7972   80.8640   12.4117 C.ar    1  UNL1       -0.0002
     18 C          63.3907   81.8644   13.3588 C.ar    1  UNL1       -0.0007
     19 C          61.8781   89.4162   10.2867 C.3     1  UNL1        0.1504
     20 C          60.6505   90.2131   10.6151 C.1     1  UNL1        0.0796
     21 N          59.4229   91.0102   10.9435 N.1     1  UNL1       -0.1955
@<TRIPOS>BOND
     1     1     2    1
     2     2     3   ar
     3     3     4   ar
     4     4     5   ar
     5     5    11    1
     6    11    12    1
     7    12    13    1
     8    13    14   ar
     9    14    15   ar
    10    15    16   ar
    11    16    17   ar
    12    17    18   ar
    13     5     6   ar
    14     6     7   ar
    15     7     8   ar
    16     8     9   ar
    17     9    10   ar
    18    10    19    1
    19    19    20    1
    20    20    21    3
    21    10     2   ar
    22     9     4   ar
    23    18    13   ar
@<TRIPOS>MOLECULE
*****
 21 23 0 0 0
SMALL
GASTEIGER

@<TRIPOS>ATOM
      1 C          61.3168   87.0413    9.2425 C.3     1  UNL1        0.0534
      2 C          62.0542   87.2459   10.5326 C.ar    1  UNL1        0.0741
      3 N          62.4424   88.5676   11.1262 N.ar    1  UNL1       -0.2283
      4 C          63.1610   88.3032   12.4162 C.ar    1  UNL1        0.1818
      5 C          63.7716   89.2230   13.4316 C.ar    1  UNL1        0.1733
      6 C          64.4382   88.6577   14.6507 C.ar    1  UNL1        0.0416
      7 C          64.4940   87.1726   14.8542 C.ar    1  UNL1        0.0222
      8 C          63.8834   86.2529   13.8388 C.ar    1  UNL1        0.0813
      9 N          63.2169   86.8182   12.6197 N.ar    1  UNL1       -0.2894
     10 C          62.5329   86.1647   11.4556 C.ar    1  UNL1        0.0716
     11 O          63.7157   90.7081   13.2280 O.3     1  UNL1       -0.4676
     12 C          64.9533   91.4581   12.8333 C.3     1  UNL1        0.2321
     13 C          65.9573   91.8503   13.8764 C.ar    1  UNL1        0.0212
     14 C          67.4132   91.9293   13.5239 C.ar    1  UNL1       -0.0007
     15 C          68.4172   92.3216   14.5669 C.ar    1  UNL1       -0.0002
     16 C          67.9654   92.6348   15.9626 C.ar    1  UNL1       -0.0000
     17 C          66.5096   92.5558   16.3151 C.ar    1  UNL1       -0.0002
     18 C          65.5055   92.1636   15.2720 C.ar    1  UNL1       -0.0007
     19 C          62.3582   84.6891   11.2506 C.3     1  UNL1        0.1504
     20 C          63.5379   83.8377   10.8855 C.1     1  UNL1        0.0796
     21 N          64.7178   82.9863   10.5204 N.1     1  UNL1       -0.1955
@<TRIPOS>BOND
     1     1     2    1
     2     2     3   ar
     3     3     4   ar
     4     4     5   ar
     5     5    11    1
     6    11    12    1
     7    12    13    1
     8    13    14   ar
     9    14    15   ar
    10    15    16   ar
    11    16    17   ar
    12    17    18   ar
    13     5     6   ar
    14     6     7   ar
    15     7     8   ar
    16     8     9   ar
    17     9    10   ar
    18    10    19    1
    19    19    20    1
    20    20    21    3
    21    10     2   ar
    22     9     4   ar
    23    18    13   ar
