@<TRIPOS>MOLECULE
*****
 34 38 0 0 0
SMALL
GASTEIGER

@<TRIPOS>ATOM
      1 C          67.9847   93.7257   15.7818 C.3     1  UNL1        0.1287
      2 P          67.0803   92.7535   15.0843 P.3     1  UNL1        0.3439
      3 O          67.5226   91.9877   16.2958 O.2     1  UNL1       -0.2577
      4 O          67.0404   93.9520   14.1831 O.3     1  UNL1       -0.2941
      5 C          66.2832   94.1333   12.9012 C.3     1  UNL1        0.1514
      6 C          65.3786   93.1610   12.2036 C.3     1  UNL1        0.0352
      7 C          65.0081   91.7672   12.6158 C.3     1  UNL1        0.0357
      8 C          64.5052   92.4433   11.3749 C.3     1  UNL1        0.0028
      9 C          63.5683   91.7195   10.4537 C.3     1  UNL1        0.0021
     10 C          63.1344   90.3197   10.7736 C.3     1  UNL1        0.0268
     11 C          63.6373   89.6437   12.0146 C.3     1  UNL1        0.1420
     12 C          63.2034   88.2439   12.3344 C.ar    1  UNL1        0.0616
     13 C          62.2665   87.5201   11.4132 C.ar    1  UNL1        0.1407
     14 F          61.5870   87.8794   10.1251 F       1  UNL1       -0.2043
     15 C          61.8326   86.1203   11.7331 C.ar    1  UNL1        0.0319
     16 C          62.3355   85.4444   12.9741 C.ar    1  UNL1        0.0351
     17 C          63.2724   86.1681   13.8952 C.ar    1  UNL1        0.1737
     18 F          63.7753   85.4920   15.1362 F       1  UNL1       -0.2010
     19 C          63.7063   87.5679   13.5753 C.ar    1  UNL1        0.1654
     20 O          64.6431   88.2916   14.4965 O.3     1  UNL1       -0.4733
     21 C          65.0771   89.6914   14.1767 C.3     1  UNL1        0.2075
     22 C          64.5741   90.3674   12.9357 C.3     1  UNL1        0.0709
     23 C          65.4505   91.0015   13.8274 C.3     1  UNL1        0.1515
     24 O          66.3726   91.4403   14.9259 O.3     1  UNL1       -0.2941
     25 S          62.7004   88.9199   11.0934 S.O2    1  UNL1        0.0093
     26 O          62.9701   88.7124   10.3725 O.2     1  UNL1       -0.1684
     27 O          61.4325   88.8002   11.8860 O.2     1  UNL1       -0.1684
     28 C          61.7636   88.1961   10.1724 C.ar    1  UNL1        0.1059
     29 C          60.3055   88.5481   10.1574 C.ar    1  UNL1        0.0192
     30 C          59.3686   87.8243    9.2363 C.ar    1  UNL1        0.0127
     31 C          59.8897   86.7486    8.3302 C.ar    1  UNL1        0.0578
     32 CL         58.9529   86.0247    7.4091 Cl      1  UNL1       -0.0822
     33 C          61.3478   86.3966    8.3451 C.ar    1  UNL1        0.0127
     34 C          62.2847   87.1203    9.2662 C.ar    1  UNL1        0.0192
@<TRIPOS>BOND
     1     1     2    1
     2     2     3    2
     3     2     4    1
     4     4     5    1
     5     5     6    1
     6     7     6    1
     7     7     8    1
     8     8     9    1
     9     9    10    1
    10    10    11    1
    11    11    25    1
    12    25    26    2
    13    25    27    2
    14    25    28    1
    15    28    29   ar
    16    29    30   ar
    17    30    31   ar
    18    31    32    1
    19    31    33   ar
    20    33    34   ar
    21    11    12    1
    22    12    13   ar
    23    13    14    1
    24    13    15   ar
    25    15    16   ar
    26    16    17   ar
    27    17    18    1
    28    17    19   ar
    29    19    20    1
    30    20    21    1
    31    22    21    1
    32     7    23    1
    33    23    24    1
    34    24     2    1
    35    22     7    1
    36    22    11    1
    37    34    28   ar
    38    19    12   ar
@<TRIPOS>MOLECULE
*****
 34 38 0 0 0
SMALL
GASTEIGER

@<TRIPOS>ATOM
      1 C          59.3920   87.6684    8.3800 C.3     1  UNL1        0.1287
      2 P          60.4444   88.4515    9.1074 P.3     1  UNL1        0.3439
      3 O          60.1088   89.3409    7.9472 O.2     1  UNL1       -0.2577
      4 O          60.3116   87.2134    9.9440 O.3     1  UNL1       -0.2941
      5 C          61.0491   86.8488   11.1981 C.3     1  UNL1        0.1514
      6 C          62.1015   87.6318   11.9256 C.3     1  UNL1        0.0352
      7 C          62.6764   88.9731   11.5785 C.3     1  UNL1        0.0357
      8 C          63.0859   88.1614   12.7715 C.3     1  UNL1        0.0028
      9 C          64.1351   88.6820   13.7086 C.3     1  UNL1        0.0021
     10 C          64.7747   90.0146   13.4527 C.3     1  UNL1        0.0268
     11 C          64.3650   90.8263   12.2597 C.3     1  UNL1        0.1420
     12 C          65.0046   92.1587   12.0038 C.ar    1  UNL1        0.0616
     13 C          66.0538   92.6795   12.9409 C.ar    1  UNL1        0.1407
     14 F          66.6872   92.1507   14.1936 F       1  UNL1       -0.2043
     15 C          66.6934   94.0120   12.6850 C.ar    1  UNL1        0.0319
     16 C          66.2837   94.8237   11.4919 C.ar    1  UNL1        0.0351
     17 C          65.2346   94.3030   10.5549 C.ar    1  UNL1        0.1737
     18 F          64.8250   95.1148    9.3618 F       1  UNL1       -0.2010
     19 C          64.5951   92.9705   10.8108 C.ar    1  UNL1        0.1654
     20 O          63.5459   92.4498    9.8737 O.3     1  UNL1       -0.4733
     21 C          62.9063   91.1174   10.1296 C.3     1  UNL1        0.2075
     22 C          63.3159   90.3056   11.3226 C.3     1  UNL1        0.0709
     23 C          62.3407   89.8626   10.4182 C.3     1  UNL1        0.1515
     24 O          61.3475   89.6305    9.3185 O.3     1  UNL1       -0.2941
     25 S          65.4143   91.3470   13.1968 S.O2    1  UNL1        0.0093
     26 O          66.1790   91.2491   12.9942 O.2     1  UNL1       -0.1684
     27 O          64.6280   91.9443   14.3261 O.2     1  UNL1       -0.1684
     28 C          66.4633   91.8678   14.1338 C.ar    1  UNL1        0.1059
     29 C          67.9161   91.7131   13.7939 C.ar    1  UNL1        0.0192
     30 C          68.9653   92.2338   14.7309 C.ar    1  UNL1        0.0127
     31 C          68.5617   92.9093   16.0080 C.ar    1  UNL1        0.0578
     32 CL         69.6108   93.4300   16.9451 Cl      1  UNL1       -0.0822
     33 C          67.1089   93.0639   16.3480 C.ar    1  UNL1        0.0127
     34 C          66.0597   92.5432   15.4109 C.ar    1  UNL1        0.0192
@<TRIPOS>BOND
     1     1     2    1
     2     2     3    2
     3     2     4    1
     4     4     5    1
     5     5     6    1
     6     7     6    1
     7     7     8    1
     8     8     9    1
     9     9    10    1
    10    10    11    1
    11    11    25    1
    12    25    26    2
    13    25    27    2
    14    25    28    1
    15    28    29   ar
    16    29    30   ar
    17    30    31   ar
    18    31    32    1
    19    31    33   ar
    20    33    34   ar
    21    11    12    1
    22    12    13   ar
    23    13    14    1
    24    13    15   ar
    25    15    16   ar
    26    16    17   ar
    27    17    18    1
    28    17    19   ar
    29    19    20    1
    30    20    21    1
    31    22    21    1
    32     7    23    1
    33    23    24    1
    34    24     2    1
    35    22     7    1
    36    22    11    1
    37    34    28   ar
    38    19    12   ar
@<TRIPOS>MOLECULE
*****
 34 38 0 0 0
SMALL
GASTEIGER

@<TRIPOS>ATOM
      1 C          58.7665   91.2081    5.5699 C.3     1  UNL1        0.1287
      2 P          59.3642   91.8851    4.3723 P.3     1  UNL1        0.3439
      3 O          57.9368   92.3443    4.3374 O.2     1  UNL1       -0.2577
      4 O          60.5258   91.1245    4.9402 O.3     1  UNL1       -0.2941
      5 C          61.9366   91.0576    4.4352 C.3     1  UNL1        0.1514
      6 C          62.5344   91.7346    3.2376 C.3     1  UNL1        0.0352
      7 C          61.8691   92.6458    2.2492 C.3     1  UNL1        0.0357
      8 C          63.3140   92.2476    2.1917 C.3     1  UNL1        0.0028
      9 C          64.1924   92.7684    1.0929 C.3     1  UNL1        0.0021
     10 C          63.6256   93.6876    0.0516 C.3     1  UNL1        0.0268
     11 C          62.1806   94.0857    0.1093 C.3     1  UNL1        0.1420
     12 C          61.6138   95.0048   -0.9319 C.ar    1  UNL1        0.0616
     13 C          62.4922   95.5257   -2.0308 C.ar    1  UNL1        0.1407
     14 F          63.9378   95.3405   -2.3856 F       1  UNL1       -0.2043
     15 C          61.9254   96.4448   -3.0720 C.ar    1  UNL1        0.0319
     16 C          60.4804   96.8429   -3.0144 C.ar    1  UNL1        0.0351
     17 C          59.6021   96.3221   -1.9156 C.ar    1  UNL1        0.1737
     18 F          58.1570   96.7203   -1.8581 F       1  UNL1       -0.2010
     19 C          60.1689   95.4030   -0.8744 C.ar    1  UNL1        0.1654
     20 O          59.2905   94.8822    0.2244 O.3     1  UNL1       -0.4733
     21 C          59.8572   93.9631    1.2656 C.3     1  UNL1        0.2075
     22 C          61.3023   93.5649    1.2080 C.3     1  UNL1        0.0709
     23 C          60.4415   93.1050    2.2143 C.3     1  UNL1        0.1515
     24 O          59.3268   92.7665    3.1591 O.3     1  UNL1       -0.2941
     25 S          63.0589   94.6066   -0.9896 S.O2    1  UNL1        0.0093
     26 O          63.3743   95.3337   -0.9038 O.2     1  UNL1       -0.1684
     27 O          63.0722   93.4979   -1.9999 O.2     1  UNL1       -0.1684
     28 C          63.9371   95.1275   -2.0884 C.ar    1  UNL1        0.1059
     29 C          64.8026   96.3294   -1.8508 C.ar    1  UNL1        0.0192
     30 C          65.6808   96.8503   -2.9496 C.ar    1  UNL1        0.0127
     31 C          65.6937   96.1692   -4.2860 C.ar    1  UNL1        0.0578
     32 CL         66.5719   96.6900   -5.3848 Cl      1  UNL1       -0.0822
     33 C          64.8282   94.9673   -4.5236 C.ar    1  UNL1        0.0127
     34 C          63.9499   94.4464   -3.4248 C.ar    1  UNL1        0.0192
@<TRIPOS>BOND
     1     1     2    1
     2     2     3    2
     3     2     4    1
     4     4     5    1
     5     5     6    1
     6     7     6    1
     7     7     8    1
     8     8     9    1
     9     9    10    1
    10    10    11    1
    11    11    25    1
    12    25    26    2
    13    25    27    2
    14    25    28    1
    15    28    29   ar
    16    29    30   ar
    17    30    31   ar
    18    31    32    1
    19    31    33   ar
    20    33    34   ar
    21    11    12    1
    22    12    13   ar
    23    13    14    1
    24    13    15   ar
    25    15    16   ar
    26    16    17   ar
    27    17    18    1
    28    17    19   ar
    29    19    20    1
    30    20    21    1
    31    22    21    1
    32     7    23    1
    33    23    24    1
    34    24     2    1
    35    22     7    1
    36    22    11    1
    37    34    28   ar
    38    19    12   ar
@<TRIPOS>MOLECULE
*****
 34 38 0 0 0
SMALL
GASTEIGER

@<TRIPOS>ATOM
      1 C          62.7672   79.9138   11.2931 C.3     1  UNL1        0.1287
      2 P          62.9048   81.3654   11.6450 P.3     1  UNL1        0.3439
      3 O          62.2728   81.4101   10.2854 O.2     1  UNL1       -0.2577
      4 O          63.4756   80.6747   12.8481 O.3     1  UNL1       -0.2941
      5 C          64.0437   81.2850   14.0949 C.3     1  UNL1        0.1514
      6 C          64.1814   82.7366   14.4469 C.3     1  UNL1        0.0352
      7 C          63.7849   83.9365   13.6388 C.3     1  UNL1        0.0357
      8 C          64.4149   84.0040   14.9983 C.3     1  UNL1        0.0028
      9 C          64.6864   85.3353   15.6339 C.3     1  UNL1        0.0021
     10 C          64.3278   86.5992   14.9099 C.3     1  UNL1        0.0268
     11 C          63.6977   86.5316   13.5503 C.3     1  UNL1        0.1420
     12 C          63.3392   87.7954   12.8262 C.ar    1  UNL1        0.0616
     13 C          63.6106   89.1268   13.4618 C.ar    1  UNL1        0.1407
     14 F          64.2098   89.5548   14.7686 F       1  UNL1       -0.2043
     15 C          63.2520   90.3906   12.7378 C.ar    1  UNL1        0.0319
     16 C          62.6220   90.3230   11.3782 C.ar    1  UNL1        0.0351
     17 C          62.3505   88.9917   10.7427 C.ar    1  UNL1        0.1737
     18 F          61.7205   88.9242    9.3830 F       1  UNL1       -0.2010
     19 C          62.7091   87.7279   11.4667 C.ar    1  UNL1        0.1654
     20 O          62.4376   86.3966   10.8311 O.3     1  UNL1       -0.4733
     21 C          62.7962   85.1328   11.5551 C.3     1  UNL1        0.2075
     22 C          63.4263   85.2003   12.9148 C.3     1  UNL1        0.0709
     23 C          63.1528   83.9811   12.2792 C.3     1  UNL1        0.1515
     24 O          62.7612   82.8370   11.3919 O.3     1  UNL1       -0.2941
     25 S          63.9692   87.8630   14.1858 S.O2    1  UNL1        0.0093
     26 O          64.2820   88.4381   13.7310 O.2     1  UNL1       -0.1684
     27 O          63.5281   87.6828   15.6082 O.2     1  UNL1       -0.1684
     28 C          64.2406   89.1942   14.8214 C.ar    1  UNL1        0.1059
     29 C          65.4696   89.9680   14.4458 C.ar    1  UNL1        0.0192
     30 C          65.7411   91.2993   15.0814 C.ar    1  UNL1        0.0127
     31 C          64.7836   91.8569   16.0924 C.ar    1  UNL1        0.0578
     32 CL         65.0549   93.1882   16.7280 Cl      1  UNL1       -0.0822
     33 C          63.5546   91.0832   16.4680 C.ar    1  UNL1        0.0127
     34 C          63.2831   89.7518   15.8324 C.ar    1  UNL1        0.0192
@<TRIPOS>BOND
     1     1     2    1
     2     2     3    2
     3     2     4    1
     4     4     5    1
     5     5     6    1
     6     7     6    1
     7     7     8    1
     8     8     9    1
     9     9    10    1
    10    10    11    1
    11    11    25    1
    12    25    26    2
    13    25    27    2
    14    25    28    1
    15    28    29   ar
    16    29    30   ar
    17    30    31   ar
    18    31    32    1
    19    31    33   ar
    20    33    34   ar
    21    11    12    1
    22    12    13   ar
    23    13    14    1
    24    13    15   ar
    25    15    16   ar
    26    16    17   ar
    27    17    18    1
    28    17    19   ar
    29    19    20    1
    30    20    21    1
    31    22    21    1
    32     7    23    1
    33    23    24    1
    34    24     2    1
    35    22     7    1
    36    22    11    1
    37    34    28   ar
    38    19    12   ar
@<TRIPOS>MOLECULE
*****
 34 38 0 0 0
SMALL
GASTEIGER

@<TRIPOS>ATOM
      1 C          66.5541   96.8560    9.4622 C.3     1  UNL1        0.1287
      2 P          66.0758   95.5901   10.1093 P.3     1  UNL1        0.3439
      3 O          65.5478   95.4701    8.7105 O.2     1  UNL1       -0.2577
      4 O          66.8168   96.2735   11.2203 O.3     1  UNL1       -0.2941
      5 C          67.0273   95.8063   12.6299 C.3     1  UNL1        0.1514
      6 C          66.5490   94.5405   13.2770 C.3     1  UNL1        0.0352
      7 C          65.7419   93.4291   12.6742 C.3     1  UNL1        0.0357
      8 C          66.2228   93.4497   14.0948 C.3     1  UNL1        0.0028
      9 C          65.9013   92.3072   15.0121 C.3     1  UNL1        0.0021
     10 C          65.0988   91.1441   14.5087 C.3     1  UNL1        0.0268
     11 C          64.6180   91.1236   13.0880 C.3     1  UNL1        0.1420
     12 C          63.8155   89.9606   12.5846 C.ar    1  UNL1        0.0616
     13 C          63.4939   88.8180   13.5019 C.ar    1  UNL1        0.1407
     14 F          63.8036   88.5159   14.9382 F       1  UNL1       -0.2043
     15 C          62.6915   87.6550   12.9985 C.ar    1  UNL1        0.0319
     16 C          62.2106   87.6345   11.5779 C.ar    1  UNL1        0.0351
     17 C          62.5322   88.7769   10.6606 C.ar    1  UNL1        0.1737
     18 F          62.0512   88.7563    9.2399 F       1  UNL1       -0.2010
     19 C          63.3346   89.9399   11.1640 C.ar    1  UNL1        0.1654
     20 O          63.6561   91.0824   10.2467 O.3     1  UNL1       -0.4733
     21 C          64.4586   92.2454   10.7501 C.3     1  UNL1        0.2075
     22 C          64.9395   92.2660   12.1708 C.3     1  UNL1        0.0709
     23 C          65.2139   93.3091   11.2753 C.3     1  UNL1        0.1515
     24 O          65.3624   94.2708   10.1339 O.3     1  UNL1       -0.2941
     25 S          64.2964   89.9811   14.0053 S.O2    1  UNL1        0.0093
     26 O          64.8893   89.4916   14.2158 O.2     1  UNL1       -0.1684
     27 O          62.8263   90.1272   14.2654 O.2     1  UNL1       -0.1684
     28 C          63.9748   88.8386   14.9225 C.ar    1  UNL1        0.1059
     29 C          63.0939   89.0603   16.1163 C.ar    1  UNL1        0.0192
     30 C          62.7723   87.9178   17.0336 C.ar    1  UNL1        0.0127
     31 C          63.3315   86.5537   16.7571 C.ar    1  UNL1        0.0578
     32 CL         63.0100   85.4112   17.6743 Cl      1  UNL1       -0.0822
     33 C          64.2124   86.3320   15.5633 C.ar    1  UNL1        0.0127
     34 C          64.5340   87.4745   14.6460 C.ar    1  UNL1        0.0192
@<TRIPOS>BOND
     1     1     2    1
     2     2     3    2
     3     2     4    1
     4     4     5    1
     5     5     6    1
     6     7     6    1
     7     7     8    1
     8     8     9    1
     9     9    10    1
    10    10    11    1
    11    11    25    1
    12    25    26    2
    13    25    27    2
    14    25    28    1
    15    28    29   ar
    16    29    30   ar
    17    30    31   ar
    18    31    32    1
    19    31    33   ar
    20    33    34   ar
    21    11    12    1
    22    12    13   ar
    23    13    14    1
    24    13    15   ar
    25    15    16   ar
    26    16    17   ar
    27    17    18    1
    28    17    19   ar
    29    19    20    1
    30    20    21    1
    31    22    21    1
    32     7    23    1
    33    23    24    1
    34    24     2    1
    35    22     7    1
    36    22    11    1
    37    34    28   ar
    38    19    12   ar
