@<TRIPOS>MOLECULE
*****
 60 67 0 0 0
SMALL
GASTEIGER

@<TRIPOS>ATOM
      1 N          62.3722   94.8272   -3.0985 N.3     1  UNL1       -0.1862
      2 C          61.3191   94.8172   -4.1665 C.3     1  UNL1        0.1775
      3 C          59.9023   94.4674   -3.8196 C.2     1  UNL1        0.2452
      4 O          58.8492   94.4575   -4.8877 O.2     1  UNL1       -0.2732
      5 N          59.5387   94.1276   -2.4046 N.am    1  UNL1       -0.2541
      6 C          58.1219   93.7777   -2.0577 C.3     1  UNL1        0.1577
      7 C          57.7583   93.4379   -0.6427 C.2     1  UNL1        0.2445
      8 O          56.3415   93.0881   -0.2958 O.2     1  UNL1       -0.2731
      9 N          58.8114   93.4478    0.4254 N.am    1  UNL1       -0.2705
     10 C          60.2282   93.7976    0.0785 C.3     1  UNL1        0.1359
     11 C          60.5918   94.1375   -1.3366 C.3     1  UNL1        0.1908
     12 N          62.0086   94.4873   -1.6835 N.am    1  UNL1       -0.1863
     13 C          63.0618   94.4973   -0.6154 C.2     1  UNL1        0.3191
     14 O          62.6981   94.1574    0.7996 O.2     1  UNL1       -0.2512
     15 N          64.4785   94.8471   -0.9623 N.am    1  UNL1       -0.2836
     16 H          64.7172   95.0701   -1.8911 H       1  UNL1        0.1513
     17 C          63.7890   95.1770   -3.4454 C.3     1  UNL1        0.1188
     18 C          64.3866   94.3739   -5.8429 C.2     1  UNL1       -0.0034
     19 C          64.5794   94.2868   -4.3579 C.2     1  UNL1       -0.0071
     20 C          57.0688   93.7678   -3.1257 C.3     1  UNL1        0.0556
     21 C          56.3962   92.4815   -3.5039 C.ar    1  UNL1       -0.0198
     22 C          55.9765   92.2438   -4.9242 C.ar    1  UNL1       -0.0011
     23 C          55.3039   90.9575   -5.3023 C.ar    1  UNL1        0.0363
     24 C          55.0510   89.9088   -4.2602 C.ar    1  UNL1        0.1337
     25 O          54.3784   88.6225   -4.6383 O.3     1  UNL1       -0.5055
     26 C          55.4706   90.1464   -2.8397 C.ar    1  UNL1        0.0363
     27 C          56.1432   91.4327   -2.4616 C.ar    1  UNL1       -0.0011
     28 H          54.1163   88.4741   -5.5255 H       1  UNL1        0.2922
     29 C          58.4478   93.1080    1.8404 C.3     1  UNL1        0.1217
     30 C          59.4386   92.4068    2.7217 C.ar    1  UNL1        0.0135
     31 C          60.8984   92.4329    2.3778 C.ar    1  UNL1       -0.0012
     32 C          61.8892   91.7318    3.2590 C.ar    1  UNL1       -0.0002
     33 C          61.4203   91.0045    4.4842 C.ar    1  UNL1        0.0015
     34 C          59.9605   90.9784    4.8281 C.ar    1  UNL1        0.0170
     35 C          59.2076   90.3480    5.9620 C.ar    1  UNL1        0.0186
     36 C          57.7514   90.6596    5.7816 C.ar    1  UNL1        0.0759
     37 N          57.6044   91.4825    4.5362 N.ar    1  UNL1       -0.3242
     38 C          56.3180   92.0149    3.9780 C.3     1  UNL1        0.1305
     39 C          58.9696   91.6795    3.9469 C.ar    1  UNL1        0.0575
     40 C          59.8058   89.5467    7.0802 C.ar    1  UNL1        0.0015
     41 C          60.4926   90.2427    8.2177 C.ar    1  UNL1        0.0002
     42 C          61.0908   89.4414    9.3357 C.ar    1  UNL1        0.0045
     43 C          61.0023   87.9442    9.3162 C.ar    1  UNL1        0.0536
     44 C          60.3155   87.2481    8.1787 C.ar    1  UNL1        0.0045
     45 C          59.7173   88.0494    7.0607 C.ar    1  UNL1        0.0002
     46 C          61.6005   87.1429   10.4343 C.2     1  UNL1        0.2491
     47 O          61.3913   85.6586   10.4887 O.2     1  UNL1       -0.2699
     48 N          62.4079   87.8260   11.4981 N.am    1  UNL1       -0.2743
     49 C          62.6171   89.3103   11.4438 C.3     1  UNL1        0.1054
     50 C          63.4245   89.9934   12.5075 C.3     1  UNL1        0.0791
     51 S          64.0227   89.1921   13.6255 S.3     1  UNL1       -0.1366
     52 C          63.8135   87.7078   13.6798 C.3     1  UNL1        0.0791
     53 C          63.0061   87.0246   12.6161 C.3     1  UNL1        0.1054
     54 C          65.5317   94.8570    0.1057 C.3     1  UNL1        0.1177
     55 C          65.2462   95.4916    1.4346 C.ar    1  UNL1       -0.0025
     56 C          66.2530   95.3972    2.5425 C.ar    1  UNL1       -0.0026
     57 C          65.9676   96.0318    3.8713 C.ar    1  UNL1       -0.0003
     58 C          64.6754   96.7608    4.0923 C.ar    1  UNL1       -0.0000
     59 C          63.6686   96.8552    2.9843 C.ar    1  UNL1       -0.0003
     60 C          63.9540   96.2206    1.6555 C.ar    1  UNL1       -0.0026
@<TRIPOS>BOND
     1    18    19    2
     2    19    17    1
     3    17     1    1
     4     1     2    1
     5     2     3    1
     6     3     4    2
     7     3     5   am
     8     5     6    1
     9     6    20    1
    10    20    21    1
    11    21    22   ar
    12    22    23   ar
    13    23    24   ar
    14    24    25    1
    15    24    26   ar
    16    26    27   ar
    17     6     7    1
    18     7     8    2
    19     7     9   am
    20     9    29    1
    21    29    30    1
    22    30    31   ar
    23    31    32   ar
    24    32    33   ar
    25    33    34   ar
    26    34    35   ar
    27    35    40    1
    28    40    41   ar
    29    41    42   ar
    30    42    43   ar
    31    43    46    1
    32    46    47    2
    33    46    48   am
    34    48    49    1
    35    49    50    1
    36    50    51    1
    37    51    52    1
    38    52    53    1
    39    43    44   ar
    40    44    45   ar
    41    35    36   ar
    42    36    37   ar
    43    37    38    1
    44    37    39   ar
    45     9    10    1
    46    11    10    1
    47    11    12    1
    48    12    13   am
    49    13    14    2
    50    13    15   am
    51    15    54    1
    52    54    55    1
    53    55    56   ar
    54    56    57   ar
    55    57    58   ar
    56    58    59   ar
    57    59    60   ar
    58    12     1    1
    59    60    55   ar
    60    11     5    1
    61    27    21   ar
    62    39    30   ar
    63    39    34   ar
    64    45    40   ar
    65    53    48    1
    66    25    28    1
    67    15    16    1
@<TRIPOS>MOLECULE
*****
 60 67 0 0 0
SMALL
GASTEIGER

@<TRIPOS>ATOM
      1 N          65.4056   89.6845   13.9530 N.3     1  UNL1       -0.1862
      2 C          65.8009   88.5566   14.8593 C.3     1  UNL1        0.1775
      3 C          65.0494   87.2593   14.8138 C.2     1  UNL1        0.2452
      4 O          65.4446   86.1313   15.7203 O.2     1  UNL1       -0.2732
      5 N          63.9026   87.0898   13.8619 N.am    1  UNL1       -0.2541
      6 C          63.1511   85.7924   13.8163 C.3     1  UNL1        0.1577
      7 C          62.0044   85.6230   12.8644 C.2     1  UNL1        0.2445
      8 O          61.2529   84.3256   12.8189 O.2     1  UNL1       -0.2731
      9 N          61.6091   86.7509   11.9580 N.am    1  UNL1       -0.2705
     10 C          62.3606   88.0483   12.0035 C.3     1  UNL1        0.1359
     11 C          63.5074   88.2177   12.9555 C.3     1  UNL1        0.1908
     12 N          64.2589   89.5151   13.0010 N.am    1  UNL1       -0.1863
     13 C          63.8636   90.6430   12.0946 C.2     1  UNL1        0.3191
     14 O          62.7168   90.4735   11.1427 O.2     1  UNL1       -0.2512
     15 N          64.6151   91.9404   12.1401 N.am    1  UNL1       -0.2836
     16 H          65.3678   92.0516   12.7649 H       1  UNL1        0.1513
     17 C          66.1571   90.9819   13.9985 C.3     1  UNL1        0.1188
     18 C          67.3350   92.3645   15.8562 C.2     1  UNL1       -0.0034
     19 C          66.0781   91.8520   15.2177 C.2     1  UNL1       -0.0071
     20 C          63.5463   84.6645   14.7227 C.3     1  UNL1        0.0556
     21 C          63.2468   83.2478   14.3315 C.ar    1  UNL1       -0.0198
     22 C          62.0083   82.5741   14.8438 C.ar    1  UNL1       -0.0011
     23 C          61.7088   81.1574   14.4526 C.ar    1  UNL1        0.0363
     24 C          62.6476   80.4142   13.5492 C.ar    1  UNL1        0.1337
     25 O          62.3480   78.9975   13.1580 O.3     1  UNL1       -0.5055
     26 C          63.8861   81.0879   13.0368 C.ar    1  UNL1        0.0363
     27 C          64.1857   82.5046   13.4280 C.ar    1  UNL1       -0.0011
     28 H          61.5744   78.5767   13.4780 H       1  UNL1        0.2922
     29 C          60.4623   86.5814   11.0060 C.3     1  UNL1        0.1217
     30 C          60.6471   86.8820    9.5481 C.ar    1  UNL1        0.0135
     31 C          61.2014   85.8328    8.6304 C.ar    1  UNL1       -0.0012
     32 C          61.3862   86.1333    7.1725 C.ar    1  UNL1       -0.0002
     33 C          61.0168   87.4829    6.6323 C.ar    1  UNL1        0.0015
     34 C          60.4624   88.5321    7.5499 C.ar    1  UNL1        0.0170
     35 C          60.0123   89.9421    7.3066 C.ar    1  UNL1        0.0186
     36 C          59.5493   90.5130    8.6141 C.ar    1  UNL1        0.0759
     37 N          59.7133   89.4559    9.6654 N.ar    1  UNL1       -0.3242
     38 C          59.3727   89.5981   11.1193 C.3     1  UNL1        0.1305
     39 C          60.2776   88.2316    9.0078 C.ar    1  UNL1        0.0575
     40 C          60.0233   90.6559    5.9872 C.ar    1  UNL1        0.0015
     41 C          58.7647   91.2803    5.4619 C.ar    1  UNL1        0.0002
     42 C          58.7757   91.9940    4.1426 C.ar    1  UNL1        0.0045
     43 C          60.0452   92.0833    3.3487 C.ar    1  UNL1        0.0536
     44 C          61.3038   91.4589    3.8741 C.ar    1  UNL1        0.0045
     45 C          61.2928   90.7451    5.1933 C.ar    1  UNL1        0.0002
     46 C          60.0562   92.7971    2.0295 C.2     1  UNL1        0.2491
     47 O          58.7626   93.1617    1.3633 O.2     1  UNL1       -0.2699
     48 N          61.3606   93.1462    1.3763 N.am    1  UNL1       -0.2743
     49 C          62.6541   92.7816    2.0425 C.3     1  UNL1        0.1054
     50 C          63.9586   93.1307    1.3894 C.3     1  UNL1        0.0791
     51 S          63.9694   93.8445    0.0702 S.3     1  UNL1       -0.1366
     52 C          62.6759   94.2091   -0.5960 C.3     1  UNL1        0.0791
     53 C          61.3714   93.8600    0.0571 C.3     1  UNL1        0.1054
     54 C          64.2199   93.0683   11.2337 C.3     1  UNL1        0.1177
     55 C          65.2745   93.8683   10.5282 C.ar    1  UNL1       -0.0025
     56 C          65.1107   95.3508   10.3699 C.ar    1  UNL1       -0.0026
     57 C          66.1653   96.1508    9.6644 C.ar    1  UNL1       -0.0003
     58 C          67.3837   95.4683    9.1171 C.ar    1  UNL1       -0.0000
     59 C          67.5475   93.9856    9.2753 C.ar    1  UNL1       -0.0003
     60 C          66.4929   93.1856    9.9809 C.ar    1  UNL1       -0.0026
@<TRIPOS>BOND
     1    18    19    2
     2    19    17    1
     3    17     1    1
     4     1     2    1
     5     2     3    1
     6     3     4    2
     7     3     5   am
     8     5     6    1
     9     6    20    1
    10    20    21    1
    11    21    22   ar
    12    22    23   ar
    13    23    24   ar
    14    24    25    1
    15    24    26   ar
    16    26    27   ar
    17     6     7    1
    18     7     8    2
    19     7     9   am
    20     9    29    1
    21    29    30    1
    22    30    31   ar
    23    31    32   ar
    24    32    33   ar
    25    33    34   ar
    26    34    35   ar
    27    35    40    1
    28    40    41   ar
    29    41    42   ar
    30    42    43   ar
    31    43    46    1
    32    46    47    2
    33    46    48   am
    34    48    49    1
    35    49    50    1
    36    50    51    1
    37    51    52    1
    38    52    53    1
    39    43    44   ar
    40    44    45   ar
    41    35    36   ar
    42    36    37   ar
    43    37    38    1
    44    37    39   ar
    45     9    10    1
    46    11    10    1
    47    11    12    1
    48    12    13   am
    49    13    14    2
    50    13    15   am
    51    15    54    1
    52    54    55    1
    53    55    56   ar
    54    56    57   ar
    55    57    58   ar
    56    58    59   ar
    57    59    60   ar
    58    12     1    1
    59    60    55   ar
    60    11     5    1
    61    27    21   ar
    62    39    30   ar
    63    39    34   ar
    64    45    40   ar
    65    53    48    1
    66    25    28    1
    67    15    16    1
@<TRIPOS>MOLECULE
*****
 60 67 0 0 0
SMALL
GASTEIGER

@<TRIPOS>ATOM
      1 N          63.8274   90.0413   11.9997 N.3     1  UNL1       -0.1862
      2 C          63.5076   88.6288   12.3900 C.3     1  UNL1        0.1775
      3 C          62.5198   87.8344   11.5880 C.2     1  UNL1        0.2452
      4 O          62.2000   86.4217   11.9785 O.2     1  UNL1       -0.2732
      5 N          61.8518   88.4525   10.3957 N.am    1  UNL1       -0.2541
      6 C          60.8640   87.6581    9.5938 C.3     1  UNL1        0.1577
      7 C          60.1960   88.2762    8.4015 C.2     1  UNL1        0.2445
      8 O          59.2082   87.4817    7.5995 O.2     1  UNL1       -0.2731
      9 N          60.5158   89.6888    8.0111 N.am    1  UNL1       -0.2705
     10 C          61.5036   90.4832    8.8130 C.3     1  UNL1        0.1359
     11 C          62.1716   89.8650   10.0054 C.3     1  UNL1        0.1908
     12 N          63.1594   90.6594   10.8073 N.am    1  UNL1       -0.1863
     13 C          63.4792   92.0721   10.4169 C.2     1  UNL1        0.3191
     14 O          62.8112   92.6902    9.2246 O.2     1  UNL1       -0.2512
     15 N          64.4670   92.8665   11.2189 N.am    1  UNL1       -0.2836
     16 H          64.9054   92.4608   12.0015 H       1  UNL1        0.1513
     17 C          64.8152   90.8357   12.8016 C.3     1  UNL1        0.1188
     18 C          64.2664   91.0210   15.3343 C.2     1  UNL1       -0.0034
     19 C          65.1033   90.4575   14.2242 C.2     1  UNL1       -0.0071
     20 C          60.5442   86.2455    9.9841 C.3     1  UNL1        0.0556
     21 C          61.6344   85.2165   10.0354 C.ar    1  UNL1       -0.0198
     22 C          61.7151   84.2664   11.1934 C.ar    1  UNL1       -0.0011
     23 C          62.8052   83.2374   11.2447 C.ar    1  UNL1        0.0363
     24 C          63.8146   83.1583   10.1380 C.ar    1  UNL1        0.1337
     25 O          64.9048   82.1293   10.1894 O.3     1  UNL1       -0.5055
     26 C          63.7340   84.1084    8.9800 C.ar    1  UNL1        0.0363
     27 C          62.6438   85.1374    8.9287 C.ar    1  UNL1       -0.0011
     28 H          64.9552   81.5358   10.9127 H       1  UNL1        0.2922
     29 C          59.8478   90.3069    6.8187 C.3     1  UNL1        0.1217
     30 C          60.6678   90.7361    5.6383 C.ar    1  UNL1        0.0135
     31 C          62.1361   90.4324    5.5948 C.ar    1  UNL1       -0.0012
     32 C          62.9561   90.8615    4.4144 C.ar    1  UNL1       -0.0002
     33 C          62.3078   91.5944    3.2775 C.ar    1  UNL1        0.0015
     34 C          60.8395   91.8982    3.3210 C.ar    1  UNL1        0.0170
     35 C          59.9307   92.6000    2.3559 C.ar    1  UNL1        0.0186
     36 C          58.5490   92.6046    2.9398 C.ar    1  UNL1        0.0759
     37 N          58.6039   91.9056    4.2658 N.ar    1  UNL1       -0.3242
     38 C          57.4465   91.6824    5.1933 C.3     1  UNL1        0.1305
     39 C          60.0195   91.4690    4.5014 C.ar    1  UNL1        0.0575
     40 C          60.3330   93.1932    1.0381 C.ar    1  UNL1        0.0015
     41 C          61.3130   94.3279    0.9943 C.ar    1  UNL1        0.0002
     42 C          61.7153   94.9209   -0.3235 C.ar    1  UNL1        0.0045
     43 C          61.1374   94.3793   -1.5974 C.ar    1  UNL1        0.0536
     44 C          60.1574   93.2446   -1.5536 C.ar    1  UNL1        0.0045
     45 C          59.7552   92.6516   -0.2358 C.ar    1  UNL1        0.0002
     46 C          61.5397   94.9725   -2.9151 C.2     1  UNL1        0.2491
     47 O          60.8655   96.2157   -3.4150 O.2     1  UNL1       -0.2699
     48 N          62.6162   94.3225   -3.7329 N.am    1  UNL1       -0.2743
     49 C          63.2903   93.0793   -3.2329 C.3     1  UNL1        0.1054
     50 C          64.3668   92.4292   -4.0507 C.3     1  UNL1        0.0791
     51 S          64.7690   93.0224   -5.3684 S.3     1  UNL1       -0.1366
     52 C          64.0948   94.2656   -5.8683 C.3     1  UNL1        0.0791
     53 C          63.0184   94.9157   -5.0506 C.3     1  UNL1        0.1054
     54 C          64.7868   94.2790   10.8285 C.3     1  UNL1        0.1177
     55 C          65.9497   94.5623    9.9244 C.ar    1  UNL1       -0.0025
     56 C          66.9626   93.4913    9.6473 C.ar    1  UNL1       -0.0026
     57 C          68.1255   93.7746    8.7432 C.ar    1  UNL1       -0.0003
     58 C          68.2755   95.1290    8.1162 C.ar    1  UNL1       -0.0000
     59 C          67.2626   96.2001    8.3934 C.ar    1  UNL1       -0.0003
     60 C          66.0997   95.9168    9.2975 C.ar    1  UNL1       -0.0026
@<TRIPOS>BOND
     1    18    19    2
     2    19    17    1
     3    17     1    1
     4     1     2    1
     5     2     3    1
     6     3     4    2
     7     3     5   am
     8     5     6    1
     9     6    20    1
    10    20    21    1
    11    21    22   ar
    12    22    23   ar
    13    23    24   ar
    14    24    25    1
    15    24    26   ar
    16    26    27   ar
    17     6     7    1
    18     7     8    2
    19     7     9   am
    20     9    29    1
    21    29    30    1
    22    30    31   ar
    23    31    32   ar
    24    32    33   ar
    25    33    34   ar
    26    34    35   ar
    27    35    40    1
    28    40    41   ar
    29    41    42   ar
    30    42    43   ar
    31    43    46    1
    32    46    47    2
    33    46    48   am
    34    48    49    1
    35    49    50    1
    36    50    51    1
    37    51    52    1
    38    52    53    1
    39    43    44   ar
    40    44    45   ar
    41    35    36   ar
    42    36    37   ar
    43    37    38    1
    44    37    39   ar
    45     9    10    1
    46    11    10    1
    47    11    12    1
    48    12    13   am
    49    13    14    2
    50    13    15   am
    51    15    54    1
    52    54    55    1
    53    55    56   ar
    54    56    57   ar
    55    57    58   ar
    56    58    59   ar
    57    59    60   ar
    58    12     1    1
    59    60    55   ar
    60    11     5    1
    61    27    21   ar
    62    39    30   ar
    63    39    34   ar
    64    45    40   ar
    65    53    48    1
    66    25    28    1
    67    15    16    1
