@<TRIPOS>MOLECULE
*****
 28 31 0 0 0
SMALL
GASTEIGER

@<TRIPOS>ATOM
      1 C          63.8170   90.7893   12.4857 C.ar    1  UNL1        0.0929
      2 C          64.9086   91.7440   12.1024 C.ar    1  UNL1        0.0467
      3 C          65.7036   92.4406   13.1665 C.ar    1  UNL1        0.1632
      4 C          65.4072   92.1826   14.6141 C.ar    1  UNL1        0.1205
      5 N          64.3157   91.2278   14.9975 N.ar    1  UNL1       -0.2669
      6 C          63.7993   90.7772   16.3317 C.ar    1  UNL1        0.2070
      7 N          62.6850   89.8020   16.0921 N.ar    1  UNL1       -0.1252
      8 N          62.5127   89.6500   14.6098 N.ar    1  UNL1       -0.1281
      9 C          63.5206   90.5312   13.9333 C.ar    1  UNL1        0.1750
     10 O          62.7389   90.7862   10.1218 O.2     1  UNL1       -0.2697
     11 C          63.0219   90.0927   11.4215 C.2     1  UNL1        0.2536
     12 N          62.5099   88.7026   11.6569 N.am    1  UNL1       -0.2657
     13 H          62.6956   88.2474   12.5099 H       1  UNL1        0.1566
     14 C          61.7147   88.0060   10.5926 C.ar    1  UNL1        0.1345
     15 C          62.3113   86.8491    9.8471 C.ar    1  UNL1        0.0368
     16 C          61.5163   86.1525    8.7828 C.ar    1  UNL1        0.0341
     17 C          60.1247   86.6128    8.4641 C.ar    1  UNL1        0.1593
     18 F          59.3297   85.9162    7.3998 F       1  UNL1       -0.2025
     19 C          59.5282   87.7697    9.2096 C.ar    1  UNL1        0.1298
     20 N          60.3232   88.4662   10.2738 N.ar    1  UNL1       -0.2267
     21 O          66.7952   93.3954   12.7831 O.3     1  UNL1       -0.4503
     22 C          67.0465   93.7059   11.3372 C.ar    1  UNL1        0.1667
     23 C          66.4762   94.9521   10.7276 C.ar    1  UNL1        0.1364
     24 N          66.7274   95.2626    9.2818 N.ar    1  UNL1       -0.2368
     25 C          67.5490   94.3268    8.4455 C.ar    1  UNL1        0.1286
     26 C          68.1193   93.0806    9.0551 C.ar    1  UNL1        0.1623
     27 F          68.9409   92.1447    8.2189 F       1  UNL1       -0.2024
     28 C          67.8680   92.7701   10.5009 C.ar    1  UNL1        0.0703
@<TRIPOS>BOND
     1    10    11    2
     2    11    12   am
     3    12    14    1
     4    14    15   ar
     5    15    16   ar
     6    16    17   ar
     7    17    18    1
     8    17    19   ar
     9    19    20   ar
    10    11     1    1
    11     1     2   ar
    12     2     3   ar
    13     3    21    1
    14    21    22    1
    15    22    23   ar
    16    23    24   ar
    17    24    25   ar
    18    25    26   ar
    19    26    27    1
    20    26    28   ar
    21     3     4   ar
    22     4     5   ar
    23     5     6   ar
    24     6     7   ar
    25     7     8   ar
    26     8     9   ar
    27    20    14   ar
    28     9     1   ar
    29    28    22   ar
    30     9     5   ar
    31    12    13    1
@<TRIPOS>MOLECULE
*****
 28 31 0 0 0
SMALL
GASTEIGER

@<TRIPOS>ATOM
      1 C          63.8166   88.3945   13.4629 C.ar    1  UNL1        0.0929
      2 C          64.4543   89.3618   14.4155 C.ar    1  UNL1        0.0467
      3 C          64.4334   90.8318   14.1178 C.ar    1  UNL1        0.1632
      4 C          63.7748   91.3345   12.8673 C.ar    1  UNL1        0.1205
      5 N          63.1371   90.3671   11.9147 N.ar    1  UNL1       -0.2669
      6 C          62.4188   90.5663   10.6130 C.ar    1  UNL1        0.2070
      7 N          61.9958   89.2193   10.1063 N.ar    1  UNL1       -0.1252
      8 N          62.4526   88.1877   11.0948 N.ar    1  UNL1       -0.1281
      9 C          63.1580   88.8971   12.2125 C.ar    1  UNL1        0.1750
     10 O          64.5741   86.4132   14.9633 O.2     1  UNL1       -0.2697
     11 C          63.8375   86.9245   13.7606 C.2     1  UNL1        0.2536
     12 N          63.1220   85.9657   12.8558 N.am    1  UNL1       -0.2657
     13 H          62.6386   86.3012   12.0665 H       1  UNL1        0.1566
     14 C          63.1430   84.4957   13.1537 C.ar    1  UNL1        0.1345
     15 C          64.0342   83.5832   12.3643 C.ar    1  UNL1        0.0368
     16 C          64.0552   82.1132   12.6621 C.ar    1  UNL1        0.0341
     17 C          63.1851   81.5557   13.7492 C.ar    1  UNL1        0.1593
     18 F          63.2061   80.0858   14.0470 F       1  UNL1       -0.2025
     19 C          62.2939   82.4682   14.5387 C.ar    1  UNL1        0.1298
     20 N          62.2728   83.9381   14.2409 N.ar    1  UNL1       -0.2267
     21 O          65.0712   91.7992   15.0705 O.3     1  UNL1       -0.4503
     22 C          66.5160   92.1685   14.9092 C.ar    1  UNL1        0.1667
     23 C          67.3025   91.6316   13.7502 C.ar    1  UNL1        0.1364
     24 N          68.7474   92.0009   13.5889 N.ar    1  UNL1       -0.2368
     25 C          69.4058   92.9071   14.5865 C.ar    1  UNL1        0.1286
     26 C          68.6193   93.4440   15.7455 C.ar    1  UNL1        0.1623
     27 F          69.2776   94.3502   16.7433 F       1  UNL1       -0.2024
     28 C          67.1744   93.0747   15.9068 C.ar    1  UNL1        0.0703
@<TRIPOS>BOND
     1    10    11    2
     2    11    12   am
     3    12    14    1
     4    14    15   ar
     5    15    16   ar
     6    16    17   ar
     7    17    18    1
     8    17    19   ar
     9    19    20   ar
    10    11     1    1
    11     1     2   ar
    12     2     3   ar
    13     3    21    1
    14    21    22    1
    15    22    23   ar
    16    23    24   ar
    17    24    25   ar
    18    25    26   ar
    19    26    27    1
    20    26    28   ar
    21     3     4   ar
    22     4     5   ar
    23     5     6   ar
    24     6     7   ar
    25     7     8   ar
    26     8     9   ar
    27    20    14   ar
    28     9     1   ar
    29    28    22   ar
    30     9     5   ar
    31    12    13    1
@<TRIPOS>MOLECULE
*****
 28 31 0 0 0
SMALL
GASTEIGER

@<TRIPOS>ATOM
      1 C          63.5222   88.2165   13.1777 C.ar    1  UNL1        0.0929
      2 C          64.0631   89.1529   14.2171 C.ar    1  UNL1        0.0467
      3 C          64.0239   90.6343   13.9852 C.ar    1  UNL1        0.1632
      4 C          63.4439   91.1794   12.7138 C.ar    1  UNL1        0.1205
      5 N          62.9030   90.2429   11.6743 N.ar    1  UNL1       -0.2669
      6 C          62.2754   90.4859   10.3337 C.ar    1  UNL1        0.2070
      7 N          61.9267   89.1545    9.7372 N.ar    1  UNL1       -0.1252
      8 N          62.3387   88.0888   10.7090 N.ar    1  UNL1       -0.1281
      9 C          62.9421   88.7615   11.9063 C.ar    1  UNL1        0.1750
     10 O          64.4793   86.1625   14.4487 O.2     1  UNL1       -0.2697
     11 C          63.5613   86.7350   13.4096 C.2     1  UNL1        0.2536
     12 N          62.6824   85.8261   12.6026 N.am    1  UNL1       -0.2657
     13 H          62.0799   86.2017   11.9206 H       1  UNL1        0.1566
     14 C          62.7216   84.3446   12.8346 C.ar    1  UNL1        0.1345
     15 C          63.0888   83.4192   11.7126 C.ar    1  UNL1        0.0368
     16 C          63.1280   81.9378   11.9445 C.ar    1  UNL1        0.0341
     17 C          62.8001   81.3817   13.2985 C.ar    1  UNL1        0.1593
     18 F          62.8393   79.9003   13.5304 F       1  UNL1       -0.2025
     19 C          62.4329   82.3071   14.4205 C.ar    1  UNL1        0.1298
     20 N          62.3937   83.7885   14.1886 N.ar    1  UNL1       -0.2267
     21 O          64.5649   91.5707   15.0248 O.3     1  UNL1       -0.4503
     22 C          66.0179   91.9431   15.0155 C.ar    1  UNL1        0.1667
     23 C          66.6095   92.6848   16.1773 C.ar    1  UNL1        0.1364
     24 N          68.0625   93.0571   16.1681 N.ar    1  UNL1       -0.2368
     25 C          68.9240   92.6877   14.9970 C.ar    1  UNL1        0.1286
     26 C          68.3324   91.9459   13.8352 C.ar    1  UNL1        0.1623
     27 F          69.1938   91.5764   12.6640 F       1  UNL1       -0.2024
     28 C          66.8794   91.5736   13.8444 C.ar    1  UNL1        0.0703
@<TRIPOS>BOND
     1    10    11    2
     2    11    12   am
     3    12    14    1
     4    14    15   ar
     5    15    16   ar
     6    16    17   ar
     7    17    18    1
     8    17    19   ar
     9    19    20   ar
    10    11     1    1
    11     1     2   ar
    12     2     3   ar
    13     3    21    1
    14    21    22    1
    15    22    23   ar
    16    23    24   ar
    17    24    25   ar
    18    25    26   ar
    19    26    27    1
    20    26    28   ar
    21     3     4   ar
    22     4     5   ar
    23     5     6   ar
    24     6     7   ar
    25     7     8   ar
    26     8     9   ar
    27    20    14   ar
    28     9     1   ar
    29    28    22   ar
    30     9     5   ar
    31    12    13    1
@<TRIPOS>MOLECULE
*****
 28 31 0 0 0
SMALL
GASTEIGER

@<TRIPOS>ATOM
      1 C          62.7524   88.0866   11.9918 C.ar    1  UNL1        0.0929
      2 C          63.3779   89.2844   12.6429 C.ar    1  UNL1        0.0467
      3 C          63.1267   90.6556   12.0893 C.ar    1  UNL1        0.1632
      4 C          62.2501   90.8291   10.8844 C.ar    1  UNL1        0.1205
      5 N          61.6247   89.6313   10.2333 N.ar    1  UNL1       -0.2669
      6 C          60.7223   89.4926    9.0432 C.ar    1  UNL1        0.2070
      7 N          60.4158   88.0355    8.8613 N.ar    1  UNL1       -0.1252
      8 N          61.1287   87.2738    9.9390 N.ar    1  UNL1       -0.1281
      9 C          61.8759   88.2600   10.7870 C.ar    1  UNL1        0.1750
     10 O          63.9301   86.5354   13.7114 O.2     1  UNL1       -0.2697
     11 C          63.0036   86.7153   12.5454 C.2     1  UNL1        0.2536
     12 N          62.3284   85.5240   11.9332 N.am    1  UNL1       -0.2657
     13 H          61.7203   85.6421   11.1680 H       1  UNL1        0.1566
     14 C          62.5796   84.1528   12.4869 C.ar    1  UNL1        0.1345
     15 C          63.0057   83.0417   11.5737 C.ar    1  UNL1        0.0368
     16 C          63.2570   81.6704   12.1274 C.ar    1  UNL1        0.0341
     17 C          63.0821   81.4102   13.5942 C.ar    1  UNL1        0.1593
     18 F          63.3333   80.0391   14.1479 F       1  UNL1       -0.2025
     19 C          62.6559   82.5214   14.5074 C.ar    1  UNL1        0.1298
     20 N          62.4047   83.8925   13.9538 N.ar    1  UNL1       -0.2267
     21 O          63.7522   91.8536   12.7404 O.3     1  UNL1       -0.4503
     22 C          65.2401   91.9183   12.9199 C.ar    1  UNL1        0.1667
     23 C          66.1191   92.2967   11.7649 C.ar    1  UNL1        0.1364
     24 N          67.6069   92.3615   11.9443 N.ar    1  UNL1       -0.2368
     25 C          68.2157   92.0479   13.2788 C.ar    1  UNL1        0.1286
     26 C          67.3367   91.6694   14.4339 C.ar    1  UNL1        0.1623
     27 F          67.9454   91.3558   15.7685 F       1  UNL1       -0.2024
     28 C          65.8489   91.6047   14.2544 C.ar    1  UNL1        0.0703
@<TRIPOS>BOND
     1    10    11    2
     2    11    12   am
     3    12    14    1
     4    14    15   ar
     5    15    16   ar
     6    16    17   ar
     7    17    18    1
     8    17    19   ar
     9    19    20   ar
    10    11     1    1
    11     1     2   ar
    12     2     3   ar
    13     3    21    1
    14    21    22    1
    15    22    23   ar
    16    23    24   ar
    17    24    25   ar
    18    25    26   ar
    19    26    27    1
    20    26    28   ar
    21     3     4   ar
    22     4     5   ar
    23     5     6   ar
    24     6     7   ar
    25     7     8   ar
    26     8     9   ar
    27    20    14   ar
    28     9     1   ar
    29    28    22   ar
    30     9     5   ar
    31    12    13    1
@<TRIPOS>MOLECULE
*****
 28 31 0 0 0
SMALL
GASTEIGER

@<TRIPOS>ATOM
      1 C          61.8479   87.1994   10.3141 C.ar    1  UNL1        0.0929
      2 C          62.3827   88.4647   10.9167 C.ar    1  UNL1        0.0467
      3 C          61.8799   89.7943   10.4381 C.ar    1  UNL1        0.1632
      4 C          60.8421   89.8588    9.3569 C.ar    1  UNL1        0.1205
      5 N          60.3073   88.5936    8.7543 N.ar    1  UNL1       -0.2669
      6 C          59.2884   88.3452    7.6819 C.ar    1  UNL1        0.2070
      7 N          59.1616   86.8619    7.4977 N.ar    1  UNL1       -0.1252
      8 N          60.1021   86.1936    8.4563 N.ar    1  UNL1       -0.1281
      9 C          60.8102   87.2639    9.2329 C.ar    1  UNL1        0.1750
     10 O          63.0381   84.9397    9.8373 O.2     1  UNL1       -0.2697
     11 C          62.3508   85.8698   10.7927 C.2     1  UNL1        0.2536
     12 N          62.1665   85.4701   12.2267 N.am    1  UNL1       -0.2657
     13 H          61.7154   86.0805   12.8538 H       1  UNL1        0.1566
     14 C          62.6694   84.1404   12.7052 C.ar    1  UNL1        0.1345
     15 C          62.4385   82.9098   11.8792 C.ar    1  UNL1        0.0368
     16 C          62.9414   81.5801   12.3576 C.ar    1  UNL1        0.0341
     17 C          63.6752   81.4809   13.6621 C.ar    1  UNL1        0.1593
     18 F          64.1781   80.1513   14.1406 F       1  UNL1       -0.2025
     19 C          63.9060   82.7116   14.4882 C.ar    1  UNL1        0.1298
     20 N          63.4031   84.0412   14.0097 N.ar    1  UNL1       -0.2267
     21 O          62.4148   91.0596   11.0407 O.3     1  UNL1       -0.4503
     22 C          63.4120   90.9945   12.1593 C.ar    1  UNL1        0.1667
     23 C          64.6651   91.8165   12.0958 C.ar    1  UNL1        0.1364
     24 N          65.6624   91.7514   13.2144 N.ar    1  UNL1       -0.2368
     25 C          65.4066   90.8641   14.3965 C.ar    1  UNL1        0.1286
     26 C          64.1535   90.0421   14.4600 C.ar    1  UNL1        0.1623
     27 F          63.8976   89.1548   15.6421 F       1  UNL1       -0.2024
     28 C          63.1562   90.1072   13.3414 C.ar    1  UNL1        0.0703
@<TRIPOS>BOND
     1    10    11    2
     2    11    12   am
     3    12    14    1
     4    14    15   ar
     5    15    16   ar
     6    16    17   ar
     7    17    18    1
     8    17    19   ar
     9    19    20   ar
    10    11     1    1
    11     1     2   ar
    12     2     3   ar
    13     3    21    1
    14    21    22    1
    15    22    23   ar
    16    23    24   ar
    17    24    25   ar
    18    25    26   ar
    19    26    27    1
    20    26    28   ar
    21     3     4   ar
    22     4     5   ar
    23     5     6   ar
    24     6     7   ar
    25     7     8   ar
    26     8     9   ar
    27    20    14   ar
    28     9     1   ar
    29    28    22   ar
    30     9     5   ar
    31    12    13    1
@<TRIPOS>MOLECULE
*****
 28 31 0 0 0
SMALL
GASTEIGER

@<TRIPOS>ATOM
      1 C          62.4928   87.4710   11.7375 C.ar    1  UNL1        0.0929
      2 C          63.4124   88.1838   12.6842 C.ar    1  UNL1        0.0467
      3 C          63.4004   89.6819   12.7562 C.ar    1  UNL1        0.1632
      4 C          62.4688   90.4674   11.8814 C.ar    1  UNL1        0.1205
      5 N          61.5493   89.7547   10.9347 N.ar    1  UNL1       -0.2669
      6 C          60.5291   90.2576    9.9567 C.ar    1  UNL1        0.2070
      7 N          59.9106   89.0702    9.2804 N.ar    1  UNL1       -0.1252
      8 N          60.5485   87.8334    9.8403 N.ar    1  UNL1       -0.1281
      9 C          61.5613   88.2564   10.8627 C.ar    1  UNL1        0.1750
     10 O          62.3117   85.2836   10.3472 O.2     1  UNL1       -0.2697
     11 C          62.5048   85.9727   11.6655 C.2     1  UNL1        0.2536
     12 N          62.7099   85.1636   12.9118 N.am    1  UNL1       -0.2657
     13 H          62.8367   85.6159   13.7770 H       1  UNL1        0.1566
     14 C          62.7219   83.6654   12.8397 C.ar    1  UNL1        0.1345
     15 C          63.1195   82.9790   11.5667 C.ar    1  UNL1        0.0368
     16 C          63.1315   81.4807   11.4945 C.ar    1  UNL1        0.0341
     17 C          62.7459   80.6689   12.6954 C.ar    1  UNL1        0.1593
     18 F          62.7579   79.1708   12.6233 F       1  UNL1       -0.2025
     19 C          62.3483   81.3554   13.9686 C.ar    1  UNL1        0.1298
     20 N          62.3363   82.8536   14.0407 N.ar    1  UNL1       -0.2267
     21 O          64.3201   90.3947   13.7030 O.3     1  UNL1       -0.4503
     22 C          65.0499   91.6263   13.2551 C.ar    1  UNL1        0.1667
     23 C          65.7692   92.4783   14.2584 C.ar    1  UNL1        0.1364
     24 N          66.4990   93.7100   13.8106 N.ar    1  UNL1       -0.2368
     25 C          66.5094   94.0895   12.3595 C.ar    1  UNL1        0.1286
     26 C          65.7901   93.2375   11.3562 C.ar    1  UNL1        0.1623
     27 F          65.8005   93.6170    9.9050 F       1  UNL1       -0.2024
     28 C          65.0603   92.0059   11.8040 C.ar    1  UNL1        0.0703
@<TRIPOS>BOND
     1    10    11    2
     2    11    12   am
     3    12    14    1
     4    14    15   ar
     5    15    16   ar
     6    16    17   ar
     7    17    18    1
     8    17    19   ar
     9    19    20   ar
    10    11     1    1
    11     1     2   ar
    12     2     3   ar
    13     3    21    1
    14    21    22    1
    15    22    23   ar
    16    23    24   ar
    17    24    25   ar
    18    25    26   ar
    19    26    27    1
    20    26    28   ar
    21     3     4   ar
    22     4     5   ar
    23     5     6   ar
    24     6     7   ar
    25     7     8   ar
    26     8     9   ar
    27    20    14   ar
    28     9     1   ar
    29    28    22   ar
    30     9     5   ar
    31    12    13    1
@<TRIPOS>MOLECULE
*****
 28 31 0 0 0
SMALL
GASTEIGER

@<TRIPOS>ATOM
      1 C          63.5086   90.3779   12.5724 C.ar    1  UNL1        0.0929
      2 C          63.2536   89.7133   13.8927 C.ar    1  UNL1        0.0467
      3 C          63.9915   90.1687   15.1165 C.ar    1  UNL1        0.1632
      4 C          64.9846   91.2888   15.0202 C.ar    1  UNL1        0.1205
      5 N          65.2396   91.9535   13.6999 N.ar    1  UNL1       -0.2669
      6 C          66.1530   93.0742   13.3003 C.ar    1  UNL1        0.2070
      7 N          65.9795   93.3114   11.8294 N.ar    1  UNL1       -0.1252
      8 N          64.9589   92.3373   11.3199 N.ar    1  UNL1       -0.1281
      9 C          64.5017   91.4980   12.4760 C.ar    1  UNL1        0.1750
     10 O          62.9138   90.6793   10.0613 O.2     1  UNL1       -0.2697
     11 C          62.7707   89.9224   11.3485 C.2     1  UNL1        0.2536
     12 N          61.8896   88.7101   11.4116 N.am    1  UNL1       -0.2657
     13 H          61.7957   88.2133   12.2564 H       1  UNL1        0.1566
     14 C          61.1517   88.2547   10.1876 C.ar    1  UNL1        0.1345
     15 C          61.1426   86.8019    9.8146 C.ar    1  UNL1        0.0368
     16 C          60.4047   86.3464    8.5907 C.ar    1  UNL1        0.0341
     17 C          59.6759   87.3438    7.7397 C.ar    1  UNL1        0.1593
     18 F          58.9380   86.8883    6.5158 F       1  UNL1       -0.2025
     19 C          59.6851   88.7967    8.1128 C.ar    1  UNL1        0.1298
     20 N          60.4229   89.2521    9.3367 N.ar    1  UNL1       -0.2267
     21 O          63.7364   89.5040   16.4369 O.3     1  UNL1       -0.4503
     22 C          63.3943   88.0444   16.4881 C.ar    1  UNL1        0.1667
     23 C          62.3090   87.5601   17.4033 C.ar    1  UNL1        0.1364
     24 N          61.9669   86.1005   17.4545 N.ar    1  UNL1       -0.2368
     25 C          62.7102   85.1252   16.5906 C.ar    1  UNL1        0.1286
     26 C          63.7955   85.6095   15.6754 C.ar    1  UNL1        0.1623
     27 F          64.5389   84.6343   14.8114 F       1  UNL1       -0.2024
     28 C          64.1376   87.0691   15.6242 C.ar    1  UNL1        0.0703
@<TRIPOS>BOND
     1    10    11    2
     2    11    12   am
     3    12    14    1
     4    14    15   ar
     5    15    16   ar
     6    16    17   ar
     7    17    18    1
     8    17    19   ar
     9    19    20   ar
    10    11     1    1
    11     1     2   ar
    12     2     3   ar
    13     3    21    1
    14    21    22    1
    15    22    23   ar
    16    23    24   ar
    17    24    25   ar
    18    25    26   ar
    19    26    27    1
    20    26    28   ar
    21     3     4   ar
    22     4     5   ar
    23     5     6   ar
    24     6     7   ar
    25     7     8   ar
    26     8     9   ar
    27    20    14   ar
    28     9     1   ar
    29    28    22   ar
    30     9     5   ar
    31    12    13    1
@<TRIPOS>MOLECULE
*****
 28 31 0 0 0
SMALL
GASTEIGER

@<TRIPOS>ATOM
      1 C          63.3780   85.7328   13.1475 C.ar    1  UNL1        0.0929
      2 C          63.0204   85.9933   11.7143 C.ar    1  UNL1        0.0467
      3 C          62.7183   84.8463   10.7962 C.ar    1  UNL1        0.1632
      4 C          62.7739   83.4385   11.3113 C.ar    1  UNL1        0.1205
      5 N          63.1316   83.1780   12.7446 N.ar    1  UNL1       -0.2669
      6 C          63.2652   81.9075   13.5307 C.ar    1  UNL1        0.2070
      7 N          63.6498   82.2694   14.9346 N.ar    1  UNL1       -0.1252
      8 N          63.7539   83.7636   15.0162 N.ar    1  UNL1       -0.1281
      9 C          63.4336   84.3251   13.6626 C.ar    1  UNL1        0.1750
     10 O          63.9134   86.6303   15.5262 O.2     1  UNL1       -0.2697
     11 C          63.6801   86.8799   14.0656 C.2     1  UNL1        0.2536
     12 N          63.7489   88.2767   13.5231 N.am    1  UNL1       -0.2657
     13 H          63.5958   88.4406   12.5645 H       1  UNL1        0.1566
     14 C          64.0509   89.4238   14.4413 C.ar    1  UNL1        0.1345
     15 C          63.2707   89.5936   15.7110 C.ar    1  UNL1        0.0368
     16 C          63.5727   90.7406   16.6293 C.ar    1  UNL1        0.0341
     17 C          64.6549   91.7179   16.2777 C.ar    1  UNL1        0.1593
     18 F          64.9569   92.8649   17.1958 F       1  UNL1       -0.2025
     19 C          65.4352   91.5481   15.0078 C.ar    1  UNL1        0.1298
     20 N          65.1332   90.4011   14.0897 N.ar    1  UNL1       -0.2267
     21 O          62.3607   85.1068    9.3629 O.3     1  UNL1       -0.4503
     22 C          61.4672   86.2590    9.0104 C.ar    1  UNL1        0.1667
     23 C          60.3006   86.0495    8.0911 C.ar    1  UNL1        0.1364
     24 N          59.4071   87.2017    7.7386 N.ar    1  UNL1       -0.2368
     25 C          59.6803   88.5633    8.3053 C.ar    1  UNL1        0.1286
     26 C          60.8469   88.7728    9.2246 C.ar    1  UNL1        0.1623
     27 F          61.1202   90.1345    9.7915 F       1  UNL1       -0.2024
     28 C          61.7404   87.6207    9.5771 C.ar    1  UNL1        0.0703
@<TRIPOS>BOND
     1    10    11    2
     2    11    12   am
     3    12    14    1
     4    14    15   ar
     5    15    16   ar
     6    16    17   ar
     7    17    18    1
     8    17    19   ar
     9    19    20   ar
    10    11     1    1
    11     1     2   ar
    12     2     3   ar
    13     3    21    1
    14    21    22    1
    15    22    23   ar
    16    23    24   ar
    17    24    25   ar
    18    25    26   ar
    19    26    27    1
    20    26    28   ar
    21     3     4   ar
    22     4     5   ar
    23     5     6   ar
    24     6     7   ar
    25     7     8   ar
    26     8     9   ar
    27    20    14   ar
    28     9     1   ar
    29    28    22   ar
    30     9     5   ar
    31    12    13    1
@<TRIPOS>MOLECULE
*****
 28 31 0 0 0
SMALL
GASTEIGER

@<TRIPOS>ATOM
      1 C          63.0699   86.8066   12.4839 C.ar    1  UNL1        0.0929
      2 C          63.2688   85.4194   13.0187 C.ar    1  UNL1        0.0467
      3 C          64.0045   85.2114   14.3091 C.ar    1  UNL1        0.1632
      4 C          64.5415   86.3907   15.0649 C.ar    1  UNL1        0.1205
      5 N          64.3426   87.7779   14.5301 N.ar    1  UNL1       -0.2669
      6 C          64.7556   89.1229   15.0502 C.ar    1  UNL1        0.2070
      7 N          64.2750   90.1621   14.0811 N.ar    1  UNL1       -0.1252
      8 N          63.5650   89.4594   12.9621 N.ar    1  UNL1       -0.1281
      9 C          63.6068   87.9859   13.2396 C.ar    1  UNL1        0.1750
     10 O          62.5942   86.1076   10.0272 O.2     1  UNL1       -0.2697
     11 C          62.3341   87.0145   11.1934 C.2     1  UNL1        0.2536
     12 N          61.3383   88.1294   11.0690 N.am    1  UNL1       -0.2657
     13 H          61.1676   88.7246   11.8344 H       1  UNL1        0.1566
     14 C          60.6025   88.3373    9.7785 C.ar    1  UNL1        0.1345
     15 C          60.6305   89.6782    9.1069 C.ar    1  UNL1        0.0368
     16 C          59.8948   89.8862    7.8163 C.ar    1  UNL1        0.0341
     17 C          59.1311   88.7532    7.1974 C.ar    1  UNL1        0.1593
     18 F          58.3954   88.9611    5.9069 F       1  UNL1       -0.2025
     19 C          59.1032   87.4122    7.8691 C.ar    1  UNL1        0.1298
     20 N          59.8388   87.2043    9.1595 N.ar    1  UNL1       -0.2267
     21 O          64.2034   83.8241   14.8440 O.3     1  UNL1       -0.4503
     22 C          63.5123   82.6630   14.1927 C.ar    1  UNL1        0.1667
     23 C          64.1895   81.9127   13.0843 C.ar    1  UNL1        0.1364
     24 N          63.4983   80.7516   12.4330 N.ar    1  UNL1       -0.2368
     25 C          62.1300   80.3407   12.8902 C.ar    1  UNL1        0.1286
     26 C          61.4529   81.0910   13.9986 C.ar    1  UNL1        0.1623
     27 F          60.0845   80.6802   14.4558 F       1  UNL1       -0.2024
     28 C          62.1440   82.2521   14.6498 C.ar    1  UNL1        0.0703
@<TRIPOS>BOND
     1    10    11    2
     2    11    12   am
     3    12    14    1
     4    14    15   ar
     5    15    16   ar
     6    16    17   ar
     7    17    18    1
     8    17    19   ar
     9    19    20   ar
    10    11     1    1
    11     1     2   ar
    12     2     3   ar
    13     3    21    1
    14    21    22    1
    15    22    23   ar
    16    23    24   ar
    17    24    25   ar
    18    25    26   ar
    19    26    27    1
    20    26    28   ar
    21     3     4   ar
    22     4     5   ar
    23     5     6   ar
    24     6     7   ar
    25     7     8   ar
    26     8     9   ar
    27    20    14   ar
    28     9     1   ar
    29    28    22   ar
    30     9     5   ar
    31    12    13    1
