@<TRIPOS>MOLECULE
*****
 33 37 0 0 0
SMALL
GASTEIGER

@<TRIPOS>ATOM
      1 C          63.8582   89.1296   13.4321 C.ar    1  UNL1        0.0957
      2 C          63.8436   89.1721   14.9314 C.ar    1  UNL1        0.1191
      3 N          64.4539   90.3359   15.6547 N.ar    1  UNL1       -0.2223
      4 C          65.0787   91.4572   14.8787 C.ar    1  UNL1        0.1784
      5 N          65.7523   92.7251   15.3131 N.ar    1  UNL1       -0.2236
      6 C          66.1832   93.4663   14.0823 C.ar    1  UNL1        0.1066
      7 C          65.7759   92.6564   12.8872 C.ar    1  UNL1        0.0910
      8 C          65.0933   91.4148   13.3794 C.ar    1  UNL1        0.0988
      9 N          64.4830   90.2510   12.6561 N.ar    1  UNL1       -0.3481
     10 H          64.4926   90.2232   11.6720 H       1  UNL1        0.1661
     11 C          62.4967   84.2097   12.0827 C.3     1  UNL1        0.1537
     12 N          62.6221   85.7044   12.0885 N.ar    1  UNL1       -0.2487
     13 N          63.3961   86.5203   13.0811 N.ar    1  UNL1       -0.1677
     14 C          63.2480   87.9658   12.7088 C.ar    1  UNL1        0.1193
     15 C          62.3824   88.0432   11.4861 C.ar    1  UNL1        0.0382
     16 C          61.8965   89.2058   10.6723 C.ar    1  UNL1        0.0054
     17 C          61.0239   88.9707    9.4752 C.ar    1  UNL1        0.0298
     18 C          60.6371   87.5731    9.0919 C.ar    1  UNL1        0.1416
     19 F          59.7643   87.3380    7.8947 F       1  UNL1       -0.2041
     20 C          61.1230   86.4105    9.9056 C.ar    1  UNL1        0.0484
     21 C          61.9957   86.6456   11.1027 C.ar    1  UNL1        0.0817
     22 C          66.0101   93.0238   11.4518 C.2     1  UNL1        0.2488
     23 O          64.9871   92.6747   10.4117 O.2     1  UNL1       -0.2700
     24 N          67.2672   93.7402   11.0565 N.am    1  UNL1       -0.3038
     25 H          67.9387   93.9694   11.7391 H       1  UNL1        0.1496
     26 C          67.5014   94.1076    9.6212 C.3     1  UNL1        0.0596
     27 C          68.3275   92.8688    9.4389 C.3     1  UNL1        0.0197
     28 C          66.6754   95.3463    9.8034 C.3     1  UNL1        0.0336
     29 C          66.9096   95.7137    8.3680 C.3     1  UNL1        0.0540
     30 N          66.4911   96.8493    7.4819 N.3     1  UNL1       -0.3221
     31 C          67.7356   94.4749    8.1858 C.3     1  UNL1        0.0336
     32 H          66.8768   96.7117    6.5478 H       1  UNL1        0.1188
     33 H          66.8388   97.7273    7.8674 H       1  UNL1        0.1188
@<TRIPOS>BOND
     1    11    12    1
     2    12    13   ar
     3    13    14   ar
     4    14     1    1
     5     1     2   ar
     6     2     3   ar
     7     3     4   ar
     8     4     5   ar
     9     5     6   ar
    10     6     7   ar
    11     7    22    1
    12    22    23    2
    13    22    24   am
    14    24    26    1
    15    26    27    1
    16    26    28    1
    17    28    29    1
    18    29    30    1
    19    29    31    1
    20     7     8   ar
    21     8     9   ar
    22    14    15   ar
    23    15    16   ar
    24    16    17   ar
    25    17    18   ar
    26    18    19    1
    27    18    20   ar
    28    20    21   ar
    29    21    12   ar
    30     9     1   ar
    31    21    15   ar
    32     8     4    1
    33    31    26    1
    34    24    25    1
    35    30    32    1
    36    30    33    1
    37     9    10    1
@<TRIPOS>MOLECULE
*****
 33 37 0 0 0
SMALL
GASTEIGER

@<TRIPOS>ATOM
      1 C          62.9319   90.0957   11.5557 C.ar    1  UNL1        0.0957
      2 C          61.9444   90.7382   10.6273 C.ar    1  UNL1        0.1191
      3 N          60.9857   89.8885    9.8471 N.ar    1  UNL1       -0.2223
      4 C          61.0143   88.3961    9.9953 C.ar    1  UNL1        0.1784
      5 N          60.1986   87.3087    9.3614 N.ar    1  UNL1       -0.2236
      6 C          60.6817   85.9939    9.8979 C.ar    1  UNL1        0.1066
      7 C          61.7962   86.2689   10.8635 C.ar    1  UNL1        0.0910
      8 C          62.0018   87.7535   10.9237 C.ar    1  UNL1        0.0988
      9 N          62.9606   88.6032   11.7039 N.ar    1  UNL1       -0.3481
     10 H          63.6086   88.1814   12.3133 H       1  UNL1        0.1661
     11 C          65.8656   92.0329   15.4953 C.3     1  UNL1        0.1537
     12 N          65.2391   91.8358   14.1468 N.ar    1  UNL1       -0.2487
     13 N          64.2489   90.7699   13.7819 N.ar    1  UNL1       -0.1677
     14 C          63.8906   90.9454   12.3360 C.ar    1  UNL1        0.1193
     15 C          64.6595   92.1198   11.8071 C.ar    1  UNL1        0.0382
     16 C          64.7083   92.7592   10.4511 C.ar    1  UNL1        0.0054
     17 C          65.5906   93.9489   10.2143 C.ar    1  UNL1        0.0298
     18 C          66.4240   94.4992   11.3335 C.ar    1  UNL1        0.1416
     19 F          67.3064   95.6890   11.0966 F       1  UNL1       -0.2041
     20 C          66.3752   93.8598   12.6895 C.ar    1  UNL1        0.0484
     21 C          65.4929   92.6701   12.9263 C.ar    1  UNL1        0.0817
     22 C          62.5694   85.2397   11.6338 C.2     1  UNL1        0.2488
     23 O          63.1917   85.5995   12.9503 O.2     1  UNL1       -0.2700
     24 N          62.7203   83.8510   11.0874 N.am    1  UNL1       -0.3038
     25 H          62.3119   83.6149   10.2233 H       1  UNL1        0.1496
     26 C          63.4935   82.8220   11.8576 C.3     1  UNL1        0.0596
     27 C          64.7236   83.1534   11.0657 C.3     1  UNL1        0.0197
     28 C          62.2635   82.4906   12.6496 C.3     1  UNL1        0.0336
     29 C          63.0367   81.4615   13.4199 C.3     1  UNL1        0.0540
     30 N          62.7136   80.4995   14.5245 N.3     1  UNL1       -0.3221
     31 C          64.2667   81.7929   12.6279 C.3     1  UNL1        0.0336
     32 H          63.5485   79.9652   14.7650 H       1  UNL1        0.1188
     33 H          61.9792   79.8622   14.2165 H       1  UNL1        0.1188
@<TRIPOS>BOND
     1    11    12    1
     2    12    13   ar
     3    13    14   ar
     4    14     1    1
     5     1     2   ar
     6     2     3   ar
     7     3     4   ar
     8     4     5   ar
     9     5     6   ar
    10     6     7   ar
    11     7    22    1
    12    22    23    2
    13    22    24   am
    14    24    26    1
    15    26    27    1
    16    26    28    1
    17    28    29    1
    18    29    30    1
    19    29    31    1
    20     7     8   ar
    21     8     9   ar
    22    14    15   ar
    23    15    16   ar
    24    16    17   ar
    25    17    18   ar
    26    18    19    1
    27    18    20   ar
    28    20    21   ar
    29    21    12   ar
    30     9     1   ar
    31    21    15   ar
    32     8     4    1
    33    31    26    1
    34    24    25    1
    35    30    32    1
    36    30    33    1
    37     9    10    1
@<TRIPOS>MOLECULE
*****
 33 37 0 0 0
SMALL
GASTEIGER

@<TRIPOS>ATOM
      1 C          63.8140   89.0681   13.4559 C.ar    1  UNL1        0.0957
      2 C          63.7764   89.1077   14.9548 C.ar    1  UNL1        0.1191
      3 N          64.3732   90.2713   15.6896 N.ar    1  UNL1       -0.2223
      4 C          65.0078   91.3952   14.9254 C.ar    1  UNL1        0.1784
      5 N          65.6723   92.6635   15.3724 N.ar    1  UNL1       -0.2236
      6 C          66.1207   93.4077   14.1498 C.ar    1  UNL1        0.1066
      7 C          65.7333   92.5994   12.9470 C.ar    1  UNL1        0.0910
      8 C          65.0455   91.3556   13.4264 C.ar    1  UNL1        0.0988
      9 N          64.4486   90.1921   12.6916 N.ar    1  UNL1       -0.3481
     10 H          64.4733   90.1661   11.7078 H       1  UNL1        0.1661
     11 C          61.0381   86.2023    9.9973 C.3     1  UNL1        0.1537
     12 N          61.9412   86.5873   11.1314 N.ar    1  UNL1       -0.2487
     13 N          62.2879   87.9864   11.5464 N.ar    1  UNL1       -0.1677
     14 C          63.2171   87.9045   12.7211 C.ar    1  UNL1        0.1193
     15 C          63.4447   86.4548   13.0321 C.ar    1  UNL1        0.0382
     16 C          64.2680   85.7710   14.0829 C.ar    1  UNL1        0.0054
     17 C          64.3028   84.2729   14.1512 C.ar    1  UNL1        0.0298
     18 C          63.5142   83.4588   13.1687 C.ar    1  UNL1        0.1416
     19 F          63.5490   81.9607   13.2370 F       1  UNL1       -0.2041
     20 C          62.6909   84.1427   12.1178 C.ar    1  UNL1        0.0484
     21 C          62.6561   85.6407   12.0495 C.ar    1  UNL1        0.0817
     22 C          65.9888   92.9699   11.5161 C.2     1  UNL1        0.2488
     23 O          64.9205   92.7590   10.4845 O.2     1  UNL1       -0.2700
     24 N          67.3127   93.5513   11.1168 N.am    1  UNL1       -0.3038
     25 H          68.0139   93.6897   11.7939 H       1  UNL1        0.1496
     26 C          67.5682   93.9217    9.6859 C.3     1  UNL1        0.0596
     27 C          68.2196   92.5899    9.4574 C.3     1  UNL1        0.0197
     28 C          66.9168   95.2534    9.9144 C.3     1  UNL1        0.0336
     29 C          67.1723   95.6239    8.4835 C.3     1  UNL1        0.0540
     30 N          66.8924   96.8276    7.6332 N.3     1  UNL1       -0.3221
     31 C          67.8236   94.2922    8.2550 C.3     1  UNL1        0.0336
     32 H          67.2400   96.6646    6.6882 H       1  UNL1        0.1188
     33 H          67.3600   97.6417    8.0319 H       1  UNL1        0.1188
@<TRIPOS>BOND
     1    11    12    1
     2    12    13   ar
     3    13    14   ar
     4    14     1    1
     5     1     2   ar
     6     2     3   ar
     7     3     4   ar
     8     4     5   ar
     9     5     6   ar
    10     6     7   ar
    11     7    22    1
    12    22    23    2
    13    22    24   am
    14    24    26    1
    15    26    27    1
    16    26    28    1
    17    28    29    1
    18    29    30    1
    19    29    31    1
    20     7     8   ar
    21     8     9   ar
    22    14    15   ar
    23    15    16   ar
    24    16    17   ar
    25    17    18   ar
    26    18    19    1
    27    18    20   ar
    28    20    21   ar
    29    21    12   ar
    30     9     1   ar
    31    21    15   ar
    32     8     4    1
    33    31    26    1
    34    24    25    1
    35    30    32    1
    36    30    33    1
    37     9    10    1
@<TRIPOS>MOLECULE
*****
 33 37 0 0 0
SMALL
GASTEIGER

@<TRIPOS>ATOM
      1 C          63.3410   85.1712   13.8918 C.ar    1  UNL1        0.0957
      2 C          64.1949   85.4627   15.0900 C.ar    1  UNL1        0.1191
      3 N          64.6875   86.8575   15.3385 N.ar    1  UNL1       -0.2223
      4 C          64.3263   87.9609   14.3888 C.ar    1  UNL1        0.1784
      5 N          64.6623   89.4226   14.3741 N.ar    1  UNL1       -0.2236
      6 C          64.0161   90.0347   13.1667 C.ar    1  UNL1        0.1066
      7 C          63.2807   88.9511   12.4352 C.ar    1  UNL1        0.0910
      8 C          63.4724   87.6695   13.1905 C.ar    1  UNL1        0.0988
      9 N          62.9797   86.2747   12.9420 N.ar    1  UNL1       -0.3481
     10 H          62.4192   86.0834   12.1555 H       1  UNL1        0.1661
     11 C          60.8933   80.5300   14.4824 C.3     1  UNL1        0.1537
     12 N          61.7232   81.6431   13.9147 N.ar    1  UNL1       -0.2487
     13 N          61.9650   82.9777   14.5553 N.ar    1  UNL1       -0.1677
     14 C          62.8483   83.7764   13.6432 C.ar    1  UNL1        0.1193
     15 C          63.1524   82.9354   12.4389 C.ar    1  UNL1        0.0382
     16 C          63.9726   83.1999   11.2112 C.ar    1  UNL1        0.0054
     17 C          64.0975   82.1459   10.1513 C.ar    1  UNL1        0.0298
     18 C          63.4022   80.8274   10.3191 C.ar    1  UNL1        0.1416
     19 F          63.5271   79.7734    9.2591 F       1  UNL1       -0.2041
     20 C          62.5820   80.5630   11.5468 C.ar    1  UNL1        0.0484
     21 C          62.4571   81.6170   12.6067 C.ar    1  UNL1        0.0817
     22 C          62.4920   89.1197   11.1704 C.2     1  UNL1        0.2488
     23 O          63.0666   89.9021   10.0269 O.2     1  UNL1       -0.2700
     24 N          61.1287   88.5060   11.0493 N.am    1  UNL1       -0.3038
     25 H          60.7515   87.9925   11.7998 H       1  UNL1        0.1496
     26 C          60.3401   88.6746    9.7845 C.3     1  UNL1        0.0596
     27 C          60.3309   90.1607    9.9883 C.3     1  UNL1        0.0197
     28 C          60.3492   87.1886    9.5807 C.3     1  UNL1        0.0336
     29 C          59.5606   87.3571    8.3159 C.3     1  UNL1        0.0540
     30 N          59.0094   86.4255    7.2774 N.3     1  UNL1       -0.3221
     31 C          59.5514   88.8431    8.5197 C.3     1  UNL1        0.0336
     32 H          58.5228   86.9645    6.5611 H       1  UNL1        0.1188
     33 H          58.3569   85.7755    7.7158 H       1  UNL1        0.1188
@<TRIPOS>BOND
     1    11    12    1
     2    12    13   ar
     3    13    14   ar
     4    14     1    1
     5     1     2   ar
     6     2     3   ar
     7     3     4   ar
     8     4     5   ar
     9     5     6   ar
    10     6     7   ar
    11     7    22    1
    12    22    23    2
    13    22    24   am
    14    24    26    1
    15    26    27    1
    16    26    28    1
    17    28    29    1
    18    29    30    1
    19    29    31    1
    20     7     8   ar
    21     8     9   ar
    22    14    15   ar
    23    15    16   ar
    24    16    17   ar
    25    17    18   ar
    26    18    19    1
    27    18    20   ar
    28    20    21   ar
    29    21    12   ar
    30     9     1   ar
    31    21    15   ar
    32     8     4    1
    33    31    26    1
    34    24    25    1
    35    30    32    1
    36    30    33    1
    37     9    10    1
@<TRIPOS>MOLECULE
*****
 33 37 0 0 0
SMALL
GASTEIGER

@<TRIPOS>ATOM
      1 C          63.7446   84.9537   14.3180 C.ar    1  UNL1        0.0957
      2 C          64.4112   83.6448   14.6216 C.ar    1  UNL1        0.1191
      3 N          64.6532   82.6534   13.5222 N.ar    1  UNL1       -0.2223
      4 C          64.2284   82.9710   12.1191 C.ar    1  UNL1        0.1784
      5 N          64.3340   82.1966   10.8388 N.ar    1  UNL1       -0.2236
      6 C          63.7326   83.0268    9.7439 C.ar    1  UNL1        0.1066
      7 C          63.2553   84.3144   10.3474 C.ar    1  UNL1        0.0910
      8 C          63.5617   84.2799   11.8154 C.ar    1  UNL1        0.0988
      9 N          63.3198   85.2713   12.9148 N.ar    1  UNL1       -0.3481
     10 H          62.8822   86.1304   12.7154 H       1  UNL1        0.1661
     11 C          62.5063   87.0577   18.9999 C.3     1  UNL1        0.1537
     12 N          62.9335   86.9121   17.5694 N.ar    1  UNL1       -0.2487
     13 N          63.0418   85.6241   16.8083 N.ar    1  UNL1       -0.1677
     14 C          63.5027   85.9450   15.4174 C.ar    1  UNL1        0.1193
     15 C          63.6791   87.4314   15.3188 C.ar    1  UNL1        0.0382
     16 C          64.1147   88.3177   14.1898 C.ar    1  UNL1        0.0054
     17 C          64.1984   89.8018   14.3909 C.ar    1  UNL1        0.0298
     18 C          63.8467   90.3995   15.7209 C.ar    1  UNL1        0.1416
     19 F          63.9304   91.8837   15.9220 F       1  UNL1       -0.2041
     20 C          63.4111   89.5131   16.8499 C.ar    1  UNL1        0.0484
     21 C          63.3273   88.0291   16.6488 C.ar    1  UNL1        0.0817
     22 C          62.5886   85.4391    9.6121 C.2     1  UNL1        0.2488
     23 O          63.2698   86.0745    8.4364 O.2     1  UNL1       -0.2700
     24 N          61.2408   85.9283   10.0524 N.am    1  UNL1       -0.3038
     25 H          60.7937   85.5113   10.8240 H       1  UNL1        0.1496
     26 C          60.5741   87.0530    9.3171 C.3     1  UNL1        0.0596
     27 C          60.1586   86.0998    8.2359 C.3     1  UNL1        0.0197
     28 C          60.9896   88.0061   10.3982 C.3     1  UNL1        0.0336
     29 C          60.3230   89.1308    9.6628 C.3     1  UNL1        0.0540
     30 N          60.1454   90.6001    9.9073 N.3     1  UNL1       -0.3221
     31 C          59.9075   88.1777    8.5817 C.3     1  UNL1        0.0336
     32 H          59.6146   91.0108    9.1392 H       1  UNL1        0.1188
     33 H          61.0599   91.0479    9.9663 H       1  UNL1        0.1188
@<TRIPOS>BOND
     1    11    12    1
     2    12    13   ar
     3    13    14   ar
     4    14     1    1
     5     1     2   ar
     6     2     3   ar
     7     3     4   ar
     8     4     5   ar
     9     5     6   ar
    10     6     7   ar
    11     7    22    1
    12    22    23    2
    13    22    24   am
    14    24    26    1
    15    26    27    1
    16    26    28    1
    17    28    29    1
    18    29    30    1
    19    29    31    1
    20     7     8   ar
    21     8     9   ar
    22    14    15   ar
    23    15    16   ar
    24    16    17   ar
    25    17    18   ar
    26    18    19    1
    27    18    20   ar
    28    20    21   ar
    29    21    12   ar
    30     9     1   ar
    31    21    15   ar
    32     8     4    1
    33    31    26    1
    34    24    25    1
    35    30    32    1
    36    30    33    1
    37     9    10    1
@<TRIPOS>MOLECULE
*****
 33 37 0 0 0
SMALL
GASTEIGER

@<TRIPOS>ATOM
      1 C          62.1945   88.8497   10.8764 C.ar    1  UNL1        0.0957
      2 C          62.5040   90.3000   11.1011 C.ar    1  UNL1        0.1191
      3 N          63.3080   90.7190   12.2961 N.ar    1  UNL1       -0.2223
      4 C          63.8026   89.6875   13.2664 C.ar    1  UNL1        0.1784
      5 N          64.6113   89.7993   14.5247 N.ar    1  UNL1       -0.2236
      6 C          64.8017   88.4181   15.0777 C.ar    1  UNL1        0.1066
      7 C          64.1106   87.4525   14.1611 C.ar    1  UNL1        0.0910
      8 C          63.4932   88.2371   13.0417 C.ar    1  UNL1        0.0988
      9 N          62.6891   87.8181   11.8467 N.ar    1  UNL1       -0.3481
     10 H          62.4860   86.8662   11.6992 H       1  UNL1        0.1661
     11 C          58.6011   88.8005    7.0078 C.3     1  UNL1        0.1537
     12 N          59.7388   88.4081    7.9033 N.ar    1  UNL1       -0.2487
     13 N          60.2473   89.1911    9.0773 N.ar    1  UNL1       -0.1677
     14 C          61.3904   88.4307    9.6814 C.ar    1  UNL1        0.1193
     15 C          61.5884   87.1778    8.8808 C.ar    1  UNL1        0.0382
     16 C          62.5663   86.0478    9.0105 C.ar    1  UNL1        0.0054
     17 C          62.5234   84.9039    8.0412 C.ar    1  UNL1        0.0298
     18 C          61.5026   84.8899    6.9422 C.ar    1  UNL1        0.1416
     19 F          61.4597   83.7459    5.9729 F       1  UNL1       -0.2041
     20 C          60.5247   86.0199    6.8125 C.ar    1  UNL1        0.0484
     21 C          60.5676   87.1638    7.7818 C.ar    1  UNL1        0.0817
     22 C          64.0480   85.9638   14.3337 C.2     1  UNL1        0.2488
     23 O          65.2646   85.2088   14.7807 O.2     1  UNL1       -0.2700
     24 N          62.7688   85.2301   14.0594 N.am    1  UNL1       -0.3038
     25 H          61.9703   85.7256   13.7660 H       1  UNL1        0.1496
     26 C          62.7063   83.7414   14.2320 C.3     1  UNL1        0.0596
     27 C          62.5161   83.9206   15.7091 C.3     1  UNL1        0.0197
     28 C          62.8964   83.5621   12.7549 C.3     1  UNL1        0.0336
     29 C          62.8339   82.0733   12.9275 C.3     1  UNL1        0.0540
     30 N          62.9241   80.8939   12.0051 N.3     1  UNL1       -0.3221
     31 C          62.6437   82.2526   14.4045 C.3     1  UNL1        0.0336
     32 H          62.8300   80.0329   12.5439 H       1  UNL1        0.1188
     33 H          63.8272   80.9013   11.5311 H       1  UNL1        0.1188
@<TRIPOS>BOND
     1    11    12    1
     2    12    13   ar
     3    13    14   ar
     4    14     1    1
     5     1     2   ar
     6     2     3   ar
     7     3     4   ar
     8     4     5   ar
     9     5     6   ar
    10     6     7   ar
    11     7    22    1
    12    22    23    2
    13    22    24   am
    14    24    26    1
    15    26    27    1
    16    26    28    1
    17    28    29    1
    18    29    30    1
    19    29    31    1
    20     7     8   ar
    21     8     9   ar
    22    14    15   ar
    23    15    16   ar
    24    16    17   ar
    25    17    18   ar
    26    18    19    1
    27    18    20   ar
    28    20    21   ar
    29    21    12   ar
    30     9     1   ar
    31    21    15   ar
    32     8     4    1
    33    31    26    1
    34    24    25    1
    35    30    32    1
    36    30    33    1
    37     9    10    1
@<TRIPOS>MOLECULE
*****
 33 37 0 0 0
SMALL
GASTEIGER

@<TRIPOS>ATOM
      1 C          63.1534   85.0033   14.0775 C.ar    1  UNL1        0.0957
      2 C          62.7849   84.0227   15.1510 C.ar    1  UNL1        0.1191
      3 N          62.6159   84.4887   16.5667 N.ar    1  UNL1       -0.2223
      4 C          62.8154   85.9354   16.9090 C.ar    1  UNL1        0.1784
      5 N          62.7182   86.6827   18.2059 N.ar    1  UNL1       -0.2236
      6 C          63.0266   88.1252   17.9341 C.ar    1  UNL1        0.1066
      7 C          63.3144   88.2695   16.4690 C.ar    1  UNL1        0.0910
      8 C          63.1838   86.9162   15.8355 C.ar    1  UNL1        0.0988
      9 N          63.3529   86.4501   14.4198 N.ar    1  UNL1       -0.3481
     10 H          63.5947   87.0938   13.7152 H       1  UNL1        0.1661
     11 C          64.7041   82.2470    9.8492 C.3     1  UNL1        0.1537
     12 N          64.0352   83.2704   10.7183 N.ar    1  UNL1       -0.2487
     13 N          64.1542   83.3737   12.2100 N.ar    1  UNL1       -0.1677
     14 C          63.3224   84.5373   12.6618 C.ar    1  UNL1        0.1193
     15 C          62.6893   85.1531   11.4494 C.ar    1  UNL1        0.0382
     16 C          61.7686   86.3256   11.2840 C.ar    1  UNL1        0.0054
     17 C          61.2884   86.7152    9.9174 C.ar    1  UNL1        0.0298
     18 C          61.7290   85.9322    8.7162 C.ar    1  UNL1        0.1416
     19 F          61.2487   86.3217    7.3495 F       1  UNL1       -0.2041
     20 C          62.6497   84.7596    8.8816 C.ar    1  UNL1        0.0484
     21 C          63.1298   84.3701   10.2482 C.ar    1  UNL1        0.0817
     22 C          63.6703   89.5435   15.7617 C.2     1  UNL1        0.2488
     23 O          63.2646   90.8642   16.3459 O.2     1  UNL1       -0.2700
     24 N          64.4318   89.4969   14.4703 N.am    1  UNL1       -0.3038
     25 H          64.6981   88.6301   14.0869 H       1  UNL1        0.1496
     26 C          64.7876   90.7709   13.7630 C.3     1  UNL1        0.0596
     27 C          63.5643   90.6366   12.9054 C.3     1  UNL1        0.0197
     28 C          66.0110   90.9053   14.6205 C.3     1  UNL1        0.0336
     29 C          66.3668   92.1793   13.9133 C.3     1  UNL1        0.0540
     30 N          67.4835   93.1752   14.0195 N.3     1  UNL1       -0.3221
     31 C          65.1435   92.0450   13.0557 C.3     1  UNL1        0.0336
     32 H          67.3433   93.9176   13.3342 H       1  UNL1        0.1188
     33 H          68.3728   92.7094   13.8391 H       1  UNL1        0.1188
@<TRIPOS>BOND
     1    11    12    1
     2    12    13   ar
     3    13    14   ar
     4    14     1    1
     5     1     2   ar
     6     2     3   ar
     7     3     4   ar
     8     4     5   ar
     9     5     6   ar
    10     6     7   ar
    11     7    22    1
    12    22    23    2
    13    22    24   am
    14    24    26    1
    15    26    27    1
    16    26    28    1
    17    28    29    1
    18    29    30    1
    19    29    31    1
    20     7     8   ar
    21     8     9   ar
    22    14    15   ar
    23    15    16   ar
    24    16    17   ar
    25    17    18   ar
    26    18    19    1
    27    18    20   ar
    28    20    21   ar
    29    21    12   ar
    30     9     1   ar
    31    21    15   ar
    32     8     4    1
    33    31    26    1
    34    24    25    1
    35    30    32    1
    36    30    33    1
    37     9    10    1
@<TRIPOS>MOLECULE
*****
 33 37 0 0 0
SMALL
GASTEIGER

@<TRIPOS>ATOM
      1 C          62.6190   86.9143   11.7167 C.ar    1  UNL1        0.0957
      2 C          61.8823   87.1746   10.4364 C.ar    1  UNL1        0.1191
      3 N          61.8469   88.5587    9.8594 N.ar    1  UNL1       -0.2223
      4 C          62.5483   89.6827   10.5628 C.ar    1  UNL1        0.1784
      5 N          62.6864   91.1402   10.2366 N.ar    1  UNL1       -0.2236
      6 C          63.5084   91.7809   11.3153 C.ar    1  UNL1        0.1066
      7 C          63.8785   90.7192   12.3083 C.ar    1  UNL1        0.0910
      8 C          63.2851   89.4225   11.8432 C.ar    1  UNL1        0.0988
      9 N          63.3205   88.0383   12.4202 N.ar    1  UNL1       -0.3481
     10 H          63.8041   87.8676   13.2605 H       1  UNL1        0.1661
     11 C          62.4118   82.8885   15.1270 C.3     1  UNL1        0.1537
     12 N          62.5591   83.6798   13.8613 N.ar    1  UNL1       -0.2487
     13 N          62.4329   85.1689   13.7326 N.ar    1  UNL1       -0.1677
     14 C          62.6544   85.5302   12.2937 C.ar    1  UNL1        0.1193
     15 C          62.9174   84.2644   11.5331 C.ar    1  UNL1        0.0382
     16 C          63.2030   84.0054   10.0835 C.ar    1  UNL1        0.0054
     17 C          63.4296   82.6028    9.6027 C.ar    1  UNL1        0.0298
     18 C          63.3707   81.4591   10.5715 C.ar    1  UNL1        0.1416
     19 F          63.5974   80.0564   10.0907 F       1  UNL1       -0.2041
     20 C          63.0852   81.7181   12.0211 C.ar    1  UNL1        0.0484
     21 C          62.8586   83.1207   12.5019 C.ar    1  UNL1        0.0817
     22 C          64.6981   90.9192   13.5486 C.2     1  UNL1        0.2488
     23 O          65.0230   89.7495   14.4296 O.2     1  UNL1       -0.2700
     24 N          65.1927   92.2889   13.9079 N.am    1  UNL1       -0.3038
     25 H          64.9795   93.0567   13.3297 H       1  UNL1        0.1496
     26 C          66.0123   92.4889   15.1482 C.3     1  UNL1        0.0596
     27 C          64.8733   91.9822   15.9825 C.3     1  UNL1        0.0197
     28 C          67.1512   92.9956   14.3139 C.3     1  UNL1        0.0336
     29 C          67.9708   93.1956   15.5542 C.3     1  UNL1        0.0540
     30 N          69.3557   93.6952   15.8413 N.3     1  UNL1       -0.3221
     31 C          66.8319   92.6889   16.3885 C.3     1  UNL1        0.0336
     32 H          69.5248   93.6694   16.8468 H       1  UNL1        0.1188
     33 H          69.4477   94.6540   15.5055 H       1  UNL1        0.1188
@<TRIPOS>BOND
     1    11    12    1
     2    12    13   ar
     3    13    14   ar
     4    14     1    1
     5     1     2   ar
     6     2     3   ar
     7     3     4   ar
     8     4     5   ar
     9     5     6   ar
    10     6     7   ar
    11     7    22    1
    12    22    23    2
    13    22    24   am
    14    24    26    1
    15    26    27    1
    16    26    28    1
    17    28    29    1
    18    29    30    1
    19    29    31    1
    20     7     8   ar
    21     8     9   ar
    22    14    15   ar
    23    15    16   ar
    24    16    17   ar
    25    17    18   ar
    26    18    19    1
    27    18    20   ar
    28    20    21   ar
    29    21    12   ar
    30     9     1   ar
    31    21    15   ar
    32     8     4    1
    33    31    26    1
    34    24    25    1
    35    30    32    1
    36    30    33    1
    37     9    10    1
@<TRIPOS>MOLECULE
*****
 33 37 0 0 0
SMALL
GASTEIGER

@<TRIPOS>ATOM
      1 C          62.8495   86.9736   12.1145 C.ar    1  UNL1        0.0957
      2 C          62.0692   86.7521   10.8528 C.ar    1  UNL1        0.1191
      3 N          61.8413   87.8899    9.9023 N.ar    1  UNL1       -0.2223
      4 C          62.3938   89.2493   10.2135 C.ar    1  UNL1        0.1784
      5 N          62.3309   90.5520    9.4726 N.ar    1  UNL1       -0.2236
      6 C          63.0724   91.5787   10.2764 C.ar    1  UNL1        0.1066
      7 C          63.5935   90.9105   11.5141 C.ar    1  UNL1        0.0910
      8 C          63.1741   89.4708   11.4752 C.ar    1  UNL1        0.0988
      9 N          63.4020   88.3330   12.4258 N.ar    1  UNL1       -0.3481
     10 H          63.9141   88.4785   13.2539 H       1  UNL1        0.1661
     11 C          63.9061   84.2276   16.4990 C.3     1  UNL1        0.1537
     12 N          63.5630   84.5736   15.0803 N.ar    1  UNL1       -0.2487
     13 N          63.4298   85.9578   14.5179 N.ar    1  UNL1       -0.1677
     14 C          63.0773   85.8358   13.0651 C.ar    1  UNL1        0.1193
     15 C          62.9927   84.3762   12.7295 C.ar    1  UNL1        0.0382
     16 C          62.6812   83.6568   11.4508 C.ar    1  UNL1        0.0054
     17 C          62.6698   82.1572   11.4176 C.ar    1  UNL1        0.0298
     18 C          62.9699   81.3771   12.6631 C.ar    1  UNL1        0.1416
     19 F          62.9585   79.8775   12.6299 F       1  UNL1       -0.2041
     20 C          63.2815   82.0966   13.9419 C.ar    1  UNL1        0.0484
     21 C          63.2929   83.5961   13.9751 C.ar    1  UNL1        0.0817
     22 C          64.3936   91.5668   12.6001 C.2     1  UNL1        0.2488
     23 O          63.8751   91.5842   14.0075 O.2     1  UNL1       -0.2700
     24 N          65.7121   92.2056   12.2786 N.am    1  UNL1       -0.3038
     25 H          66.0524   92.1941   11.3548 H       1  UNL1        0.1496
     26 C          66.5121   92.8618   13.3645 C.3     1  UNL1        0.0596
     27 C          66.1443   94.2105   12.8205 C.3     1  UNL1        0.0197
     28 C          66.8799   91.5132   13.9085 C.3     1  UNL1        0.0336
     29 C          67.6800   92.1695   14.9945 C.3     1  UNL1        0.0540
     30 N          68.5058   91.6799   16.1471 N.3     1  UNL1       -0.3221
     31 C          67.3122   93.5180   14.4505 C.3     1  UNL1        0.0336
     32 H          68.8889   92.4778   16.6540 H       1  UNL1        0.1188
     33 H          69.2692   91.1013   15.7968 H       1  UNL1        0.1188
@<TRIPOS>BOND
     1    11    12    1
     2    12    13   ar
     3    13    14   ar
     4    14     1    1
     5     1     2   ar
     6     2     3   ar
     7     3     4   ar
     8     4     5   ar
     9     5     6   ar
    10     6     7   ar
    11     7    22    1
    12    22    23    2
    13    22    24   am
    14    24    26    1
    15    26    27    1
    16    26    28    1
    17    28    29    1
    18    29    30    1
    19    29    31    1
    20     7     8   ar
    21     8     9   ar
    22    14    15   ar
    23    15    16   ar
    24    16    17   ar
    25    17    18   ar
    26    18    19    1
    27    18    20   ar
    28    20    21   ar
    29    21    12   ar
    30     9     1   ar
    31    21    15   ar
    32     8     4    1
    33    31    26    1
    34    24    25    1
    35    30    32    1
    36    30    33    1
    37     9    10    1
