@<TRIPOS>MOLECULE
*****
 35 38 0 0 0
SMALL
GASTEIGER

@<TRIPOS>ATOM
      1 C          60.7880   88.7871    9.6287 C.ar    1  UNL1        0.0908
      2 C          59.7822   88.2424   10.5992 C.ar    1  UNL1        0.1363
      3 N          60.5055   87.3515   11.5650 N.ar    1  UNL1       -0.1660
      4 N          61.9583   87.3455   11.1915 N.ar    1  UNL1       -0.2436
      5 C          62.1328   88.2328    9.9948 C.ar    1  UNL1        0.1117
      6 O          59.1433   87.8539    7.2996 O.2     1  UNL1       -0.2680
      7 C          59.6772   89.2554    7.3271 C.2     1  UNL1        0.2706
      8 N          60.4995   89.7220    8.4917 N.am    1  UNL1       -0.2766
      9 H          60.8499   90.6419    8.5097 H       1  UNL1        0.1553
     10 C          59.3887   90.1903    6.1901 C.ar    1  UNL1        0.1764
     11 C          60.4078   90.8305    5.2948 C.ar    1  UNL1        0.0688
     12 C          59.6795   91.6849    4.3001 C.ar    1  UNL1        0.1961
     13 O          58.2102   91.5728    4.5806 O.2     1  UNL1       -0.3517
     14 N          58.0305   90.6490    5.7487 N.ar    1  UNL1       -0.0722
     15 C          60.3097   92.5072    3.2154 C.ar    1  UNL1        0.1375
     16 C          61.7775   92.3791    2.9340 C.ar    1  UNL1        0.1211
     17 N          62.4078   93.2013    1.8492 N.ar    1  UNL1       -0.2390
     18 C          61.5703   94.1516    1.0459 C.ar    1  UNL1        0.1195
     19 C          60.1025   94.2797    1.3272 C.ar    1  UNL1        0.1196
     20 N          59.4722   93.4575    2.4120 N.ar    1  UNL1       -0.2375
     21 C          63.0456   86.5856   11.8918 C.3     1  UNL1        0.1538
     22 C          62.8539   85.1350   12.2219 C.ar    1  UNL1        0.0060
     23 C          62.6273   84.7128   13.6433 C.ar    1  UNL1       -0.0024
     24 C          62.4356   83.2622   13.9734 C.ar    1  UNL1        0.0036
     25 C          62.4706   82.2338   12.8821 C.ar    1  UNL1        0.0714
     26 C          62.6972   82.6559   11.4606 C.ar    1  UNL1        0.0074
     27 C          62.8888   84.1065   11.1305 C.ar    1  UNL1        0.0693
     28 C          62.2789   80.7831   13.2121 C.3     1  UNL1        0.4186
     29 F          62.0873   79.3325   13.5422 F       1  UNL1       -0.1659
     30 F          62.8076   80.4057   11.8601 F       1  UNL1       -0.1659
     31 F          61.7502   81.1605   14.5642 F       1  UNL1       -0.1659
     32 C          63.1154   84.5286    9.7091 C.3     1  UNL1        0.4183
     33 F          63.3420   84.9508    8.2877 F       1  UNL1       -0.1659
     34 F          61.7019   85.0245    9.6310 F       1  UNL1       -0.1659
     35 F          64.5289   84.0328    9.7872 F       1  UNL1       -0.1659
@<TRIPOS>BOND
     1     6     7    2
     2     7     8   am
     3     8     1    1
     4     1     2   ar
     5     2     3   ar
     6     3     4   ar
     7     4    21    1
     8    21    22    1
     9    22    23   ar
    10    23    24   ar
    11    24    25   ar
    12    25    28    1
    13    28    29    1
    14    28    30    1
    15    28    31    1
    16    25    26   ar
    17    26    27   ar
    18    27    32    1
    19    32    33    1
    20    32    34    1
    21    32    35    1
    22     4     5   ar
    23     7    10    1
    24    10    11   ar
    25    11    12   ar
    26    12    15    1
    27    15    16   ar
    28    16    17   ar
    29    17    18   ar
    30    18    19   ar
    31    19    20   ar
    32    12    13   ar
    33    13    14   ar
    34     5     1   ar
    35    14    10   ar
    36    27    22   ar
    37    20    15   ar
    38     8     9    1
@<TRIPOS>MOLECULE
*****
 35 38 0 0 0
SMALL
GASTEIGER

@<TRIPOS>ATOM
      1 C          60.8090   88.7847    9.7010 C.ar    1  UNL1        0.0908
      2 C          59.7796   88.2141   10.6310 C.ar    1  UNL1        0.1363
      3 N          60.4871   87.3457   11.6287 N.ar    1  UNL1       -0.1660
      4 N          61.9536   87.3797   11.3153 N.ar    1  UNL1       -0.2436
      5 C          62.1525   88.2691   10.1239 C.ar    1  UNL1        0.1117
      6 O          59.1178   87.8648    7.4001 O.2     1  UNL1       -0.2680
      7 C          59.6960   89.2489    7.3997 C.2     1  UNL1        0.2706
      8 N          60.5416   89.7089    8.5501 N.am    1  UNL1       -0.2766
      9 H          60.9211   90.6173    8.5498 H       1  UNL1        0.1553
     10 C          59.4286   90.1730    6.2487 C.ar    1  UNL1        0.1764
     11 C          60.4655   90.8409    5.3951 C.ar    1  UNL1        0.0688
     12 C          59.7552   91.6721    4.3682 C.ar    1  UNL1        0.1961
     13 O          58.2793   91.5178    4.5871 O.2     1  UNL1       -0.3517
     14 N          58.0774   90.5913    5.7494 N.ar    1  UNL1       -0.0722
     15 C          60.4064   92.5103    3.3083 C.ar    1  UNL1        0.1375
     16 C          61.8367   92.2629    2.9300 C.ar    1  UNL1        0.1211
     17 N          62.4879   93.1011    1.8702 N.ar    1  UNL1       -0.2390
     18 C          61.7089   94.1867    1.1887 C.ar    1  UNL1        0.1195
     19 C          60.2787   94.4342    1.5670 C.ar    1  UNL1        0.1196
     20 N          59.6274   93.5959    2.6268 N.ar    1  UNL1       -0.2375
     21 C          63.0319   86.6521   12.0621 C.3     1  UNL1        0.1538
     22 C          62.9012   85.1808   12.3240 C.ar    1  UNL1        0.0060
     23 C          62.5138   84.2526   11.2112 C.ar    1  UNL1       -0.0024
     24 C          62.3830   82.7814   11.4730 C.ar    1  UNL1        0.0036
     25 C          62.6396   82.2385   12.8475 C.ar    1  UNL1        0.0714
     26 C          63.0270   83.1668   13.9603 C.ar    1  UNL1        0.0074
     27 C          63.1577   84.6380   13.6985 C.ar    1  UNL1        0.0693
     28 C          62.5088   80.7673   13.1093 C.3     1  UNL1        0.4186
     29 F          62.3781   79.2962   13.3711 F       1  UNL1       -0.1659
     30 F          62.9217   80.4792   11.6964 F       1  UNL1       -0.1659
     31 F          62.0960   81.0554   14.5223 F       1  UNL1       -0.1659
     32 C          63.5451   85.5662   14.8113 C.3     1  UNL1        0.4183
     33 F          63.9325   86.4945   15.9240 F       1  UNL1       -0.1659
     34 F          64.8578   85.8294   14.1348 F       1  UNL1       -0.1659
     35 F          62.2325   85.3031   15.4878 F       1  UNL1       -0.1659
@<TRIPOS>BOND
     1     6     7    2
     2     7     8   am
     3     8     1    1
     4     1     2   ar
     5     2     3   ar
     6     3     4   ar
     7     4    21    1
     8    21    22    1
     9    22    23   ar
    10    23    24   ar
    11    24    25   ar
    12    25    28    1
    13    28    29    1
    14    28    30    1
    15    28    31    1
    16    25    26   ar
    17    26    27   ar
    18    27    32    1
    19    32    33    1
    20    32    34    1
    21    32    35    1
    22     4     5   ar
    23     7    10    1
    24    10    11   ar
    25    11    12   ar
    26    12    15    1
    27    15    16   ar
    28    16    17   ar
    29    17    18   ar
    30    18    19   ar
    31    19    20   ar
    32    12    13   ar
    33    13    14   ar
    34     5     1   ar
    35    14    10   ar
    36    27    22   ar
    37    20    15   ar
    38     8     9    1
@<TRIPOS>MOLECULE
*****
 35 38 0 0 0
SMALL
GASTEIGER

@<TRIPOS>ATOM
      1 C          63.9058   88.7352   15.6724 C.ar    1  UNL1        0.0908
      2 C          62.9954   89.5406   16.5515 C.ar    1  UNL1        0.1363
      3 N          63.3145   90.9914   16.3434 N.ar    1  UNL1       -0.1660
      4 N          64.4220   91.0827   15.3359 N.ar    1  UNL1       -0.2436
      5 C          64.7875   89.6883   14.9212 C.ar    1  UNL1        0.1117
      6 O          63.5092   87.4182   13.0062 O.2     1  UNL1       -0.2680
      7 C          63.7320   86.5808   14.2307 C.2     1  UNL1        0.2706
      8 N          63.9303   87.2393   15.5637 N.am    1  UNL1       -0.2766
      9 H          64.0765   86.6897   16.3674 H       1  UNL1        0.1553
     10 C          63.7564   85.0850   14.1219 C.ar    1  UNL1        0.1764
     11 C          63.3832   84.2829   12.9105 C.ar    1  UNL1        0.0688
     12 C          63.5544   82.8308   13.2452 C.ar    1  UNL1        0.1961
     13 O          64.0334   82.7354   14.6635 O.2     1  UNL1       -0.3517
     14 N          64.1582   84.1286   15.2053 N.ar    1  UNL1       -0.0722
     15 C          63.2926   81.6768   12.3235 C.ar    1  UNL1        0.1375
     16 C          62.8027   80.3713   12.8766 C.ar    1  UNL1        0.1211
     17 N          62.5409   79.2173   11.9549 N.ar    1  UNL1       -0.2390
     18 C          62.7690   79.3686   10.4801 C.ar    1  UNL1        0.1195
     19 C          63.2588   80.6740    9.9270 C.ar    1  UNL1        0.1196
     20 N          63.5206   81.8281   10.8487 N.ar    1  UNL1       -0.2375
     21 C          65.0532   92.3465   14.8316 C.3     1  UNL1        0.1538
     22 C          65.8219   92.3388   13.5436 C.ar    1  UNL1        0.0060
     23 C          65.0933   92.4175   12.2348 C.ar    1  UNL1       -0.0024
     24 C          65.8620   92.4098   10.9468 C.ar    1  UNL1        0.0036
     25 C          67.3593   92.3234   10.9676 C.ar    1  UNL1        0.0714
     26 C          68.0880   92.2446   12.2763 C.ar    1  UNL1        0.0074
     27 C          67.3193   92.2524   13.5643 C.ar    1  UNL1        0.0693
     28 C          68.1281   92.3156    9.6795 C.3     1  UNL1        0.4186
     29 F          68.8968   92.3079    8.3915 F       1  UNL1       -0.1659
     30 F          68.0627   90.8174    9.6495 F       1  UNL1       -0.1659
     31 F          68.1935   93.8139    9.7095 F       1  UNL1       -0.1659
     32 C          68.0479   92.1737   14.8731 C.3     1  UNL1        0.4183
     33 F          68.7766   92.0949   16.1819 F       1  UNL1       -0.1659
     34 F          68.2764   93.6557   14.8350 F       1  UNL1       -0.1659
     35 F          67.8195   90.6916   14.9112 F       1  UNL1       -0.1659
@<TRIPOS>BOND
     1     6     7    2
     2     7     8   am
     3     8     1    1
     4     1     2   ar
     5     2     3   ar
     6     3     4   ar
     7     4    21    1
     8    21    22    1
     9    22    23   ar
    10    23    24   ar
    11    24    25   ar
    12    25    28    1
    13    28    29    1
    14    28    30    1
    15    28    31    1
    16    25    26   ar
    17    26    27   ar
    18    27    32    1
    19    32    33    1
    20    32    34    1
    21    32    35    1
    22     4     5   ar
    23     7    10    1
    24    10    11   ar
    25    11    12   ar
    26    12    15    1
    27    15    16   ar
    28    16    17   ar
    29    17    18   ar
    30    18    19   ar
    31    19    20   ar
    32    12    13   ar
    33    13    14   ar
    34     5     1   ar
    35    14    10   ar
    36    27    22   ar
    37    20    15   ar
    38     8     9    1
@<TRIPOS>MOLECULE
*****
 35 38 0 0 0
SMALL
GASTEIGER

@<TRIPOS>ATOM
      1 C          60.7841   88.6056    9.6564 C.ar    1  UNL1        0.0908
      2 C          59.7731   88.1651   10.6733 C.ar    1  UNL1        0.1363
      3 N          60.4621   87.2575   11.6488 N.ar    1  UNL1       -0.1660
      4 N          61.8988   87.1371   11.2348 N.ar    1  UNL1       -0.2436
      5 C          62.0978   87.9702   10.0034 C.ar    1  UNL1        0.1117
      6 O          58.8206   87.8157    7.5301 O.2     1  UNL1       -0.2680
      7 C          59.5448   89.1258    7.4330 C.2     1  UNL1        0.2706
      8 N          60.5265   89.5207    8.4961 N.am    1  UNL1       -0.2766
      9 H          61.0017   90.3805    8.4324 H       1  UNL1        0.1553
     10 C          59.2871   90.0409    6.2727 C.ar    1  UNL1        0.1764
     11 C          60.3299   90.6627    5.3917 C.ar    1  UNL1        0.0688
     12 C          59.6288   91.5009    4.3643 C.ar    1  UNL1        0.1961
     13 O          58.1527   91.3972    4.6102 O.2     1  UNL1       -0.3517
     14 N          57.9415   90.4949    5.7896 N.ar    1  UNL1       -0.0722
     15 C          60.2880   92.3022    3.2810 C.ar    1  UNL1        0.1375
     16 C          59.4530   93.1058    2.3287 C.ar    1  UNL1        0.1211
     17 N          60.1122   93.9070    1.2455 N.ar    1  UNL1       -0.2390
     18 C          61.6065   93.9047    1.1146 C.ar    1  UNL1        0.1195
     19 C          62.4415   93.1011    2.0668 C.ar    1  UNL1        0.1196
     20 N          61.7823   92.2998    3.1501 N.ar    1  UNL1       -0.2375
     21 C          62.9517   86.3259   11.9301 C.3     1  UNL1        0.1538
     22 C          62.9152   84.8282   11.8560 C.ar    1  UNL1        0.0060
     23 C          62.8878   84.1437   10.5216 C.ar    1  UNL1       -0.0024
     24 C          62.8513   82.6460   10.4475 C.ar    1  UNL1        0.0036
     25 C          62.8423   81.8328   11.7079 C.ar    1  UNL1        0.0714
     26 C          62.8697   82.5173   13.0423 C.ar    1  UNL1        0.0074
     27 C          62.9062   84.0149   13.1164 C.ar    1  UNL1        0.0693
     28 C          62.8058   80.3350   11.6338 C.3     1  UNL1        0.4186
     29 F          62.7693   78.8373   11.5597 F       1  UNL1       -0.1659
     30 F          62.9043   80.4065   10.1388 F       1  UNL1       -0.1659
     31 F          62.7073   80.2634   13.1288 F       1  UNL1       -0.1659
     32 C          62.9337   84.6994   14.4508 C.3     1  UNL1        0.4183
     33 F          62.9611   85.3839   15.7853 F       1  UNL1       -0.1659
     34 F          61.4519   84.5055   14.5808 F       1  UNL1       -0.1659
     35 F          64.4154   84.8933   14.3209 F       1  UNL1       -0.1659
@<TRIPOS>BOND
     1     6     7    2
     2     7     8   am
     3     8     1    1
     4     1     2   ar
     5     2     3   ar
     6     3     4   ar
     7     4    21    1
     8    21    22    1
     9    22    23   ar
    10    23    24   ar
    11    24    25   ar
    12    25    28    1
    13    28    29    1
    14    28    30    1
    15    28    31    1
    16    25    26   ar
    17    26    27   ar
    18    27    32    1
    19    32    33    1
    20    32    34    1
    21    32    35    1
    22     4     5   ar
    23     7    10    1
    24    10    11   ar
    25    11    12   ar
    26    12    15    1
    27    15    16   ar
    28    16    17   ar
    29    17    18   ar
    30    18    19   ar
    31    19    20   ar
    32    12    13   ar
    33    13    14   ar
    34     5     1   ar
    35    14    10   ar
    36    27    22   ar
    37    20    15   ar
    38     8     9    1
@<TRIPOS>MOLECULE
*****
 35 38 0 0 0
SMALL
GASTEIGER

@<TRIPOS>ATOM
      1 C          62.8128   88.7367   12.0354 C.ar    1  UNL1        0.0908
      2 C          63.3541   89.7551   12.9946 C.ar    1  UNL1        0.1363
      3 N          64.0743   89.0244   14.0888 N.ar    1  UNL1       -0.1660
      4 N          63.9782   87.5544   13.8059 N.ar    1  UNL1       -0.2436
      5 C          63.1986   87.3767   12.5368 C.ar    1  UNL1        0.1117
      6 O          60.8139   86.7402   11.0260 O.2     1  UNL1       -0.2680
      7 C          61.0248   88.0292   10.2883 C.2     1  UNL1        0.2706
      8 N          62.0242   89.0274   10.7930 N.am    1  UNL1       -0.2766
      9 H          62.1626   89.8734   10.3088 H       1  UNL1        0.1553
     10 C          60.2362   88.3198    9.0458 C.ar    1  UNL1        0.1764
     11 C          60.3904   89.5244    8.1653 C.ar    1  UNL1        0.0688
     12 C          59.4045   89.4060    7.0410 C.ar    1  UNL1        0.1961
     13 O          58.6409   88.1283    7.2268 O.2     1  UNL1       -0.3517
     14 N          59.1549   87.4570    8.4658 N.ar    1  UNL1       -0.0722
     15 C          59.2154   90.3921    5.9267 C.ar    1  UNL1        0.1375
     16 C          57.8361   90.8528    5.5589 C.ar    1  UNL1        0.1211
     17 N          57.6469   91.8389    4.4446 N.ar    1  UNL1       -0.2390
     18 C          58.8371   92.3645    3.6981 C.ar    1  UNL1        0.1195
     19 C          60.2164   91.9039    4.0659 C.ar    1  UNL1        0.1196
     20 N          60.4056   90.9177    5.1803 N.ar    1  UNL1       -0.2375
     21 C          64.5597   86.4553   14.6447 C.3     1  UNL1        0.1538
     22 C          64.0742   85.0461   14.4759 C.ar    1  UNL1        0.0060
     23 C          64.6184   84.1929   13.3686 C.ar    1  UNL1       -0.0024
     24 C          64.1329   82.7838   13.1997 C.ar    1  UNL1        0.0036
     25 C          63.1032   82.2278   14.1381 C.ar    1  UNL1        0.0714
     26 C          62.5590   83.0809   15.2453 C.ar    1  UNL1        0.0074
     27 C          63.0445   84.4900   15.4142 C.ar    1  UNL1        0.0693
     28 C          62.6177   80.8185   13.9693 C.3     1  UNL1        0.4186
     29 F          62.1323   79.4094   13.8004 F       1  UNL1       -0.1659
     30 F          63.9369   80.4363   13.3663 F       1  UNL1       -0.1659
     31 F          61.2985   81.2007   14.5722 F       1  UNL1       -0.1659
     32 C          62.5003   85.3432   16.5215 C.3     1  UNL1        0.4183
     33 F          61.9561   86.1963   17.6287 F       1  UNL1       -0.1659
     34 F          63.8830   85.4975   17.0821 F       1  UNL1       -0.1659
     35 F          61.1176   85.1889   15.9608 F       1  UNL1       -0.1659
@<TRIPOS>BOND
     1     6     7    2
     2     7     8   am
     3     8     1    1
     4     1     2   ar
     5     2     3   ar
     6     3     4   ar
     7     4    21    1
     8    21    22    1
     9    22    23   ar
    10    23    24   ar
    11    24    25   ar
    12    25    28    1
    13    28    29    1
    14    28    30    1
    15    28    31    1
    16    25    26   ar
    17    26    27   ar
    18    27    32    1
    19    32    33    1
    20    32    34    1
    21    32    35    1
    22     4     5   ar
    23     7    10    1
    24    10    11   ar
    25    11    12   ar
    26    12    15    1
    27    15    16   ar
    28    16    17   ar
    29    17    18   ar
    30    18    19   ar
    31    19    20   ar
    32    12    13   ar
    33    13    14   ar
    34     5     1   ar
    35    14    10   ar
    36    27    22   ar
    37    20    15   ar
    38     8     9    1
@<TRIPOS>MOLECULE
*****
 35 38 0 0 0
SMALL
GASTEIGER

@<TRIPOS>ATOM
      1 C          62.1025   88.3962   11.3706 C.ar    1  UNL1        0.0908
      2 C          60.9643   89.2537   10.9021 C.ar    1  UNL1        0.1363
      3 N          61.4553   90.6683   10.8145 N.ar    1  UNL1       -0.1660
      4 N          62.8968   90.6852   11.2289 N.ar    1  UNL1       -0.2436
      5 C          63.2968   89.2810   11.5725 C.ar    1  UNL1        0.1117
      6 O          63.7779   87.1538   13.5269 O.2     1  UNL1       -0.2680
      7 C          62.8924   86.2930   12.6754 C.2     1  UNL1        0.2706
      8 N          62.0547   86.9142   11.5973 N.am    1  UNL1       -0.2766
      9 H          61.4735   86.3492   11.0384 H       1  UNL1        0.1553
     10 C          62.8446   84.8110   12.9022 C.ar    1  UNL1        0.1764
     11 C          62.8559   83.7552   11.8366 C.ar    1  UNL1        0.0688
     12 C          62.7955   82.4163   12.5101 C.ar    1  UNL1        0.1961
     13 O          62.7469   82.6445   13.9918 O.2     1  UNL1       -0.3517
     14 N          62.7772   84.1245   14.2341 N.ar    1  UNL1       -0.0722
     15 C          62.7855   81.0832   11.8225 C.ar    1  UNL1        0.1375
     16 C          62.5537   79.8317   12.6162 C.ar    1  UNL1        0.1211
     17 N          62.5437   78.4986   11.9287 N.ar    1  UNL1       -0.2390
     18 C          62.7654   78.4171   10.4474 C.ar    1  UNL1        0.1195
     19 C          62.9971   79.6685    9.6537 C.ar    1  UNL1        0.1196
     20 N          63.0072   81.0017   10.3413 N.ar    1  UNL1       -0.2375
     21 C          63.7828   91.8941   11.2890 C.3     1  UNL1        0.1538
     22 C          64.8499   91.9904   12.3388 C.ar    1  UNL1        0.0060
     23 C          64.6365   91.3638   13.6849 C.ar    1  UNL1       -0.0024
     24 C          65.7035   91.4601   14.7347 C.ar    1  UNL1        0.0036
     25 C          66.9840   92.1830   14.4384 C.ar    1  UNL1        0.0714
     26 C          67.1974   92.8096   13.0924 C.ar    1  UNL1        0.0074
     27 C          66.1304   92.7133   12.0426 C.ar    1  UNL1        0.0693
     28 C          68.0511   92.2793   15.4883 C.3     1  UNL1        0.4186
     29 F          69.1182   92.3757   16.5380 F       1  UNL1       -0.1659
     30 F          69.1043   92.2454   14.4208 F       1  UNL1       -0.1659
     31 F          66.9979   92.3133   16.5558 F       1  UNL1       -0.1659
     32 C          66.3438   93.3399   10.6965 C.3     1  UNL1        0.4183
     33 F          66.5573   93.9665    9.3505 F       1  UNL1       -0.1659
     34 F          65.6800   94.5965   11.1762 F       1  UNL1       -0.1659
     35 F          67.0077   92.0832   10.2168 F       1  UNL1       -0.1659
@<TRIPOS>BOND
     1     6     7    2
     2     7     8   am
     3     8     1    1
     4     1     2   ar
     5     2     3   ar
     6     3     4   ar
     7     4    21    1
     8    21    22    1
     9    22    23   ar
    10    23    24   ar
    11    24    25   ar
    12    25    28    1
    13    28    29    1
    14    28    30    1
    15    28    31    1
    16    25    26   ar
    17    26    27   ar
    18    27    32    1
    19    32    33    1
    20    32    34    1
    21    32    35    1
    22     4     5   ar
    23     7    10    1
    24    10    11   ar
    25    11    12   ar
    26    12    15    1
    27    15    16   ar
    28    16    17   ar
    29    17    18   ar
    30    18    19   ar
    31    19    20   ar
    32    12    13   ar
    33    13    14   ar
    34     5     1   ar
    35    14    10   ar
    36    27    22   ar
    37    20    15   ar
    38     8     9    1
@<TRIPOS>MOLECULE
*****
 35 38 0 0 0
SMALL
GASTEIGER

@<TRIPOS>ATOM
      1 C          62.5869   87.7167   11.6984 C.ar    1  UNL1        0.0908
      2 C          63.3100   88.5036   12.7511 C.ar    1  UNL1        0.1363
      3 N          64.0173   87.5338   13.6506 N.ar    1  UNL1       -0.1660
      4 N          63.7313   86.1475   13.1539 N.ar    1  UNL1       -0.2436
      5 C          62.8473   86.2606   11.9474 C.ar    1  UNL1        0.1117
      6 O          60.9075   85.9002   10.0013 O.2     1  UNL1       -0.2680
      7 C          60.9106   87.3778    9.7426 C.2     1  UNL1        0.2706
      8 N          61.7502   88.2860   10.5912 N.am    1  UNL1       -0.2766
      9 H          61.7522   89.2558   10.4215 H       1  UNL1        0.1553
     10 C          60.0739   87.9471    8.6354 C.ar    1  UNL1        0.1764
     11 C          60.4224   89.1351    7.7885 C.ar    1  UNL1        0.0688
     12 C          59.3058   89.3505    6.8103 C.ar    1  UNL1        0.1961
     13 O          58.2672   88.2957    7.0527 O.2     1  UNL1       -0.3517
     14 N          58.7420   87.4283    8.1806 N.ar    1  UNL1       -0.0722
     15 C          59.2394   90.4311    5.7721 C.ar    1  UNL1        0.1375
     16 C          57.9143   91.0159    5.3819 C.ar    1  UNL1        0.1211
     17 N          57.8479   92.0965    4.3437 N.ar    1  UNL1       -0.2390
     18 C          59.1066   92.5923    3.6957 C.ar    1  UNL1        0.1195
     19 C          60.4316   92.0076    4.0859 C.ar    1  UNL1        0.1196
     20 N          60.4981   90.9270    5.1242 N.ar    1  UNL1       -0.2375
     21 C          64.2401   84.8722   13.7577 C.3     1  UNL1        0.1538
     22 C          63.3582   83.6596   13.8027 C.ar    1  UNL1        0.0060
     23 C          62.5066   83.3959   15.0090 C.ar    1  UNL1       -0.0024
     24 C          61.6247   82.1834   15.0541 C.ar    1  UNL1        0.0036
     25 C          61.5945   81.2345   13.8928 C.ar    1  UNL1        0.0714
     26 C          62.4461   81.4982   12.6864 C.ar    1  UNL1        0.0074
     27 C          63.3280   82.7107   12.6414 C.ar    1  UNL1        0.0693
     28 C          60.7126   80.0219   13.9378 C.3     1  UNL1        0.4186
     29 F          59.8309   78.8093   13.9827 F       1  UNL1       -0.1659
     30 F          61.8775   79.1604   13.5494 F       1  UNL1       -0.1659
     31 F          59.5478   80.8834   14.3261 F       1  UNL1       -0.1659
     32 C          64.1796   82.9744   11.4351 C.3     1  UNL1        0.4183
     33 F          65.0312   83.2380   10.2287 F       1  UNL1       -0.1659
     34 F          65.3379   82.2960   12.1045 F       1  UNL1       -0.1659
     35 F          63.0213   83.6527   10.7656 F       1  UNL1       -0.1659
@<TRIPOS>BOND
     1     6     7    2
     2     7     8   am
     3     8     1    1
     4     1     2   ar
     5     2     3   ar
     6     3     4   ar
     7     4    21    1
     8    21    22    1
     9    22    23   ar
    10    23    24   ar
    11    24    25   ar
    12    25    28    1
    13    28    29    1
    14    28    30    1
    15    28    31    1
    16    25    26   ar
    17    26    27   ar
    18    27    32    1
    19    32    33    1
    20    32    34    1
    21    32    35    1
    22     4     5   ar
    23     7    10    1
    24    10    11   ar
    25    11    12   ar
    26    12    15    1
    27    15    16   ar
    28    16    17   ar
    29    17    18   ar
    30    18    19   ar
    31    19    20   ar
    32    12    13   ar
    33    13    14   ar
    34     5     1   ar
    35    14    10   ar
    36    27    22   ar
    37    20    15   ar
    38     8     9    1
@<TRIPOS>MOLECULE
*****
 35 38 0 0 0
SMALL
GASTEIGER

@<TRIPOS>ATOM
      1 C          63.5340   88.0272   16.2191 C.ar    1  UNL1        0.0908
      2 C          62.8544   87.5297   17.4603 C.ar    1  UNL1        0.1363
      3 N          62.4428   86.1067   17.2247 N.ar    1  UNL1       -0.1660
      4 N          62.8681   85.7247   15.8379 N.ar    1  UNL1       -0.2436
      5 C          63.5425   86.9116   15.2164 C.ar    1  UNL1        0.1117
      6 O          64.1501   89.0011   13.4492 O.2     1  UNL1       -0.2680
      7 C          64.4130   89.8864   14.6313 C.2     1  UNL1        0.2706
      8 N          64.1050   89.3994   16.0162 N.am    1  UNL1       -0.2766
      9 H          64.2775   89.9805   16.7920 H       1  UNL1        0.1553
     10 C          64.9839   91.2586   14.4283 C.ar    1  UNL1        0.1764
     11 C          65.2703   91.9076   13.1066 C.ar    1  UNL1        0.0688
     12 C          65.8321   93.2728   13.3727 C.ar    1  UNL1        0.1961
     13 O          65.8928   93.4674   14.8588 O.2     1  UNL1       -0.3517
     14 N          65.3686   92.2226   15.5112 N.ar    1  UNL1       -0.0722
     15 C          66.2583   94.2684   12.3349 C.ar    1  UNL1        0.1375
     16 C          66.9137   93.7992   11.0699 C.ar    1  UNL1        0.1211
     17 N          67.3399   94.7949   10.0321 N.ar    1  UNL1       -0.2390
     18 C          67.1106   96.2597   10.2593 C.ar    1  UNL1        0.1195
     19 C          66.4553   96.7289   11.5243 C.ar    1  UNL1        0.1196
     20 N          66.0290   95.7333   12.5622 N.ar    1  UNL1       -0.2375
     21 C          62.6563   84.3901   15.1869 C.3     1  UNL1        0.1538
     22 C          62.7875   84.2521   13.6990 C.ar    1  UNL1        0.0060
     23 C          62.8742   85.4765   12.8370 C.ar    1  UNL1       -0.0024
     24 C          63.0054   85.3386   11.3491 C.ar    1  UNL1        0.0036
     25 C          63.0499   83.9761   10.7233 C.ar    1  UNL1        0.0714
     26 C          62.9631   82.7516   11.5853 C.ar    1  UNL1        0.0074
     27 C          62.8319   82.8896   13.0732 C.ar    1  UNL1        0.0693
     28 C          63.1811   83.8381    9.2354 C.3     1  UNL1        0.4186
     29 F          63.3123   83.7001    7.7476 F       1  UNL1       -0.1659
     30 F          63.7260   82.4519    9.4121 F       1  UNL1       -0.1659
     31 F          62.6362   85.2244    9.0587 F       1  UNL1       -0.1659
     32 C          62.7451   81.6651   13.9352 C.3     1  UNL1        0.4183
     33 F          62.6584   80.4406   14.7972 F       1  UNL1       -0.1659
     34 F          61.2525   81.8051   13.9838 F       1  UNL1       -0.1659
     35 F          64.2378   81.5251   13.8866 F       1  UNL1       -0.1659
@<TRIPOS>BOND
     1     6     7    2
     2     7     8   am
     3     8     1    1
     4     1     2   ar
     5     2     3   ar
     6     3     4   ar
     7     4    21    1
     8    21    22    1
     9    22    23   ar
    10    23    24   ar
    11    24    25   ar
    12    25    28    1
    13    28    29    1
    14    28    30    1
    15    28    31    1
    16    25    26   ar
    17    26    27   ar
    18    27    32    1
    19    32    33    1
    20    32    34    1
    21    32    35    1
    22     4     5   ar
    23     7    10    1
    24    10    11   ar
    25    11    12   ar
    26    12    15    1
    27    15    16   ar
    28    16    17   ar
    29    17    18   ar
    30    18    19   ar
    31    19    20   ar
    32    12    13   ar
    33    13    14   ar
    34     5     1   ar
    35    14    10   ar
    36    27    22   ar
    37    20    15   ar
    38     8     9    1
