@<TRIPOS>MOLECULE
*****
 22 24 0 0 0
SMALL
GASTEIGER

@<TRIPOS>ATOM
      1 C          63.5248   85.5326   13.2057 C.2     1  UNL1       -0.0242
      2 C          63.0612   84.2404   12.6012 C.2     1  UNL1       -0.0420
      3 C          62.3047   84.5609   11.3462 C.3     1  UNL1        0.0481
      4 C          62.3008   86.0511   11.1750 C.ar    1  UNL1       -0.0162
      5 C          61.7080   86.9387   10.1212 C.ar    1  UNL1        0.0257
      6 C          61.8693   88.4269   10.2166 C.ar    1  UNL1        0.1398
      7 F          61.2765   89.3147    9.1627 F       1  UNL1       -0.2042
      8 C          62.6233   89.0275   11.3658 C.ar    1  UNL1        0.0296
      9 C          63.2161   88.1398   12.4197 C.ar    1  UNL1        0.0017
     10 C          63.0548   86.6516   12.3243 C.ar    1  UNL1       -0.0077
     11 C          65.7320   85.1800   14.5302 C.3     1  UNL1        0.0116
     12 C          64.3189   85.6799   14.4697 C.3     1  UNL1        0.0681
     13 C          63.7002   86.3269   15.6731 C.ar    1  UNL1        0.0919
     14 N          63.6057   87.8016   15.9306 N.ar    1  UNL1       -0.2408
     15 C          62.9144   87.9989   17.2471 C.ar    1  UNL1        0.1061
     16 C          62.5815   86.6463   17.8032 C.ar    1  UNL1        0.0572
     17 S          63.0672   85.6128   16.8305 S.2     1  UNL1       -0.0699
     18 C          63.3103   82.8686   13.1546 C.3     1  UNL1        0.0394
     19 C          62.3149   82.2437   14.0866 C.3     1  UNL1        0.0765
     20 N          61.6996   80.9184   13.7479 N.3     1  UNL1       -0.2700
     21 C          60.2908   80.6168   14.1656 C.3     1  UNL1        0.0897
     22 C          62.4930   79.8945   12.9914 C.3     1  UNL1        0.0897
@<TRIPOS>BOND
     1    12    11    1
     2    12     1    1
     3     1     2    2
     4     2    18    1
     5    18    19    1
     6    19    20    1
     7    20    21    1
     8    20    22    1
     9     2     3    1
    10     3     4    1
    11     4     5   ar
    12     5     6   ar
    13     6     7    1
    14     6     8   ar
    15     8     9   ar
    16     9    10   ar
    17    12    13    1
    18    13    14   ar
    19    14    15   ar
    20    15    16   ar
    21    16    17   ar
    22    10     1    1
    23    17    13   ar
    24    10     4   ar
@<TRIPOS>MOLECULE
*****
 22 24 0 0 0
SMALL
GASTEIGER

@<TRIPOS>ATOM
      1 C          63.7413   89.2654   13.5661 C.2     1  UNL1       -0.0242
      2 C          63.9473   87.7934   13.7684 C.2     1  UNL1       -0.0420
      3 C          63.3028   87.0733   12.6213 C.3     1  UNL1        0.0481
      4 C          62.6985   88.1001   11.7100 C.ar    1  UNL1       -0.0162
      5 C          61.9365   87.9765   10.4239 C.ar    1  UNL1        0.0257
      6 C          61.4455   89.2077    9.7218 C.ar    1  UNL1        0.1398
      7 F          60.6834   89.0841    8.4357 F       1  UNL1       -0.2042
      8 C          61.7164   90.5625   10.3058 C.ar    1  UNL1        0.0296
      9 C          62.4784   90.6861   11.5919 C.ar    1  UNL1        0.0017
     10 C          62.9695   89.4549   12.2940 C.ar    1  UNL1       -0.0077
     11 C          63.6581   90.4819   15.8604 C.3     1  UNL1        0.0116
     12 C          64.2225   90.3563   14.4762 C.3     1  UNL1        0.0681
     13 C          65.2682   91.3216   14.0024 C.ar    1  UNL1        0.0919
     14 N          65.0804   92.3831   12.9593 N.ar    1  UNL1       -0.2408
     15 C          66.3815   93.1125   12.8007 C.ar    1  UNL1        0.1061
     16 C          67.3734   92.5018   13.7456 C.ar    1  UNL1        0.0572
     17 S          66.6854   91.3950   14.4884 S.2     1  UNL1       -0.0699
     18 C          64.6708   87.1540   14.9163 C.3     1  UNL1        0.0394
     19 C          64.3853   85.7274   15.2816 C.3     1  UNL1        0.0765
     20 N          63.0981   85.3712   15.9643 N.3     1  UNL1       -0.2700
     21 C          62.6765   86.1075   17.2014 C.3     1  UNL1        0.0897
     22 C          62.2325   84.2787   15.4101 C.3     1  UNL1        0.0897
@<TRIPOS>BOND
     1    12    11    1
     2    12     1    1
     3     1     2    2
     4     2    18    1
     5    18    19    1
     6    19    20    1
     7    20    21    1
     8    20    22    1
     9     2     3    1
    10     3     4    1
    11     4     5   ar
    12     5     6   ar
    13     6     7    1
    14     6     8   ar
    15     8     9   ar
    16     9    10   ar
    17    12    13    1
    18    13    14   ar
    19    14    15   ar
    20    15    16   ar
    21    16    17   ar
    22    10     1    1
    23    17    13   ar
    24    10     4   ar
@<TRIPOS>MOLECULE
*****
 22 24 0 0 0
SMALL
GASTEIGER

@<TRIPOS>ATOM
      1 C          63.0716   84.8379   11.6201 C.2     1  UNL1       -0.0242
      2 C          63.5203   85.6678   12.7863 C.2     1  UNL1       -0.0420
      3 C          63.0249   87.0680   12.5766 C.3     1  UNL1        0.0481
      4 C          62.2701   87.1035   11.2808 C.ar    1  UNL1       -0.0162
      5 C          61.5602   88.2128   10.5628 C.ar    1  UNL1        0.0257
      6 C          60.8792   87.9437    9.2537 C.ar    1  UNL1        0.1398
      7 F          60.1693   89.0530    8.5357 F       1  UNL1       -0.2042
      8 C          60.9081   86.5654    8.6626 C.ar    1  UNL1        0.0296
      9 C          61.6180   85.4562    9.3805 C.ar    1  UNL1        0.0017
     10 C          62.2990   85.7252   10.6897 C.ar    1  UNL1       -0.0077
     11 C          64.1928   82.9249   10.2659 C.3     1  UNL1        0.0116
     12 C          63.3472   83.3771   11.4195 C.3     1  UNL1        0.0681
     13 C          62.7774   82.3686   12.3724 C.ar    1  UNL1        0.0919
     14 N          62.0451   82.6737   13.6454 N.ar    1  UNL1       -0.2408
     15 C          61.6550   81.3715   14.2793 C.ar    1  UNL1        0.1061
     16 C          62.1462   80.2615   13.3982 C.ar    1  UNL1        0.0572
     17 S          62.8399   80.8777   12.2196 S.2     1  UNL1       -0.0699
     18 C          64.3233   85.1826   13.9567 C.3     1  UNL1        0.0394
     19 C          64.4705   86.0457   15.1746 C.3     1  UNL1        0.0765
     20 N          63.3204   86.2052   16.1243 N.3     1  UNL1       -0.2700
     21 C          62.3759   85.0633   16.3568 C.3     1  UNL1        0.0897
     22 C          63.1149   87.5065   16.8414 C.3     1  UNL1        0.0897
@<TRIPOS>BOND
     1    12    11    1
     2    12     1    1
     3     1     2    2
     4     2    18    1
     5    18    19    1
     6    19    20    1
     7    20    21    1
     8    20    22    1
     9     2     3    1
    10     3     4    1
    11     4     5   ar
    12     5     6   ar
    13     6     7    1
    14     6     8   ar
    15     8     9   ar
    16     9    10   ar
    17    12    13    1
    18    13    14   ar
    19    14    15   ar
    20    15    16   ar
    21    16    17   ar
    22    10     1    1
    23    17    13   ar
    24    10     4   ar
@<TRIPOS>MOLECULE
*****
 22 24 0 0 0
SMALL
GASTEIGER

@<TRIPOS>ATOM
      1 C          62.8397   86.8216   12.0050 C.2     1  UNL1       -0.0242
      2 C          63.5837   87.6070   13.0441 C.2     1  UNL1       -0.0420
      3 C          64.1836   86.6361   14.0174 C.3     1  UNL1        0.0481
      4 C          63.8105   85.2507   13.5799 C.ar    1  UNL1       -0.0162
      5 C          64.1197   83.8996   14.1533 C.ar    1  UNL1        0.0257
      6 C          63.5983   82.6631   13.4830 C.ar    1  UNL1        0.1398
      7 F          63.9076   81.3119   14.0564 F       1  UNL1       -0.2042
      8 C          62.7677   82.7778   12.2392 C.ar    1  UNL1        0.0296
      9 C          62.4585   84.1289   11.6658 C.ar    1  UNL1        0.0017
     10 C          62.9799   85.3653   12.3361 C.ar    1  UNL1       -0.0077
     11 C          62.3295   86.8606    9.4578 C.3     1  UNL1        0.0116
     12 C          62.0876   87.3923   10.8394 C.3     1  UNL1        0.0681
     13 C          61.0936   88.4947   11.0553 C.ar    1  UNL1        0.0919
     14 N          59.9848   88.4968   12.0655 N.ar    1  UNL1       -0.2408
     15 C          59.2398   89.7920   11.9334 C.ar    1  UNL1        0.1061
     16 C          59.8882   90.5904   10.8416 C.ar    1  UNL1        0.0572
     17 S          61.0340   89.7886   10.2989 S.2     1  UNL1       -0.0699
     18 C          63.7062   89.1009   13.1001 C.3     1  UNL1        0.0394
     19 C          62.8915   89.8838   14.0867 C.3     1  UNL1        0.0765
     20 N          63.4334   90.1554   15.4588 N.3     1  UNL1       -0.2700
     21 C          63.0739   89.2503   16.5998 C.3     1  UNL1        0.0897
     22 C          64.3345   91.3320   15.6900 C.3     1  UNL1        0.0897
@<TRIPOS>BOND
     1    12    11    1
     2    12     1    1
     3     1     2    2
     4     2    18    1
     5    18    19    1
     6    19    20    1
     7    20    21    1
     8    20    22    1
     9     2     3    1
    10     3     4    1
    11     4     5   ar
    12     5     6   ar
    13     6     7    1
    14     6     8   ar
    15     8     9   ar
    16     9    10   ar
    17    12    13    1
    18    13    14   ar
    19    14    15   ar
    20    15    16   ar
    21    16    17   ar
    22    10     1    1
    23    17    13   ar
    24    10     4   ar
@<TRIPOS>MOLECULE
*****
 22 24 0 0 0
SMALL
GASTEIGER

@<TRIPOS>ATOM
      1 C          63.7831   89.1860   13.6183 C.2     1  UNL1       -0.0242
      2 C          63.0753   89.3384   12.3046 C.2     1  UNL1       -0.0420
      3 C          62.8085   87.9665   11.7600 C.3     1  UNL1        0.0481
      4 C          63.3514   86.9662   12.7371 C.ar    1  UNL1       -0.0162
      5 C          63.3751   85.4664   12.7294 C.ar    1  UNL1        0.0257
      6 C          64.0011   84.7204   13.8703 C.ar    1  UNL1        0.1398
      7 F          64.0249   83.2206   13.8626 F       1  UNL1       -0.2042
      8 C          64.6035   85.4742   15.0188 C.ar    1  UNL1        0.0296
      9 C          64.5797   86.9740   15.0264 C.ar    1  UNL1        0.0017
     10 C          63.9537   87.7200   13.8856 C.ar    1  UNL1       -0.0077
     11 C          63.6554   90.4557   15.8815 C.3     1  UNL1        0.0116
     12 C          64.2400   90.3036   14.5084 C.3     1  UNL1        0.0681
     13 C          65.2814   91.2690   14.0256 C.ar    1  UNL1        0.0919
     14 N          65.0770   92.3491   13.0051 N.ar    1  UNL1       -0.2408
     15 C          66.3795   93.0715   12.8274 C.ar    1  UNL1        0.1061
     16 C          67.3889   92.4380   13.7381 C.ar    1  UNL1        0.0572
     17 S          66.7103   91.3239   14.4787 S.2     1  UNL1       -0.0699
     18 C          62.7002   90.6350   11.6503 C.3     1  UNL1        0.0394
     19 C          61.9807   90.6304   10.3342 C.3     1  UNL1        0.0765
     20 N          60.5747   90.1147   10.2497 N.3     1  UNL1       -0.2700
     21 C          59.5745   90.4876   11.3036 C.3     1  UNL1        0.0897
     22 C          60.1689   89.2261    9.1115 C.3     1  UNL1        0.0897
@<TRIPOS>BOND
     1    12    11    1
     2    12     1    1
     3     1     2    2
     4     2    18    1
     5    18    19    1
     6    19    20    1
     7    20    21    1
     8    20    22    1
     9     2     3    1
    10     3     4    1
    11     4     5   ar
    12     5     6   ar
    13     6     7    1
    14     6     8   ar
    15     8     9   ar
    16     9    10   ar
    17    12    13    1
    18    13    14   ar
    19    14    15   ar
    20    15    16   ar
    21    16    17   ar
    22    10     1    1
    23    17    13   ar
    24    10     4   ar
@<TRIPOS>MOLECULE
*****
 22 24 0 0 0
SMALL
GASTEIGER

@<TRIPOS>ATOM
      1 C          62.4154   86.6139   11.2441 C.2     1  UNL1       -0.0242
      2 C          62.7257   87.8608   12.0179 C.2     1  UNL1       -0.0420
      3 C          62.0172   89.0054   11.3561 C.3     1  UNL1        0.0481
      4 C          61.2691   88.4658   10.1733 C.ar    1  UNL1       -0.0162
      5 C          60.3955   89.1294    9.1503 C.ar    1  UNL1        0.0257
      6 C          59.7681   88.3150    8.0581 C.ar    1  UNL1        0.1398
      7 F          58.8945   88.9786    7.0351 F       1  UNL1       -0.2042
      8 C          60.0142   86.8369    7.9889 C.ar    1  UNL1        0.0296
      9 C          60.8877   86.1733    9.0119 C.ar    1  UNL1        0.0017
     10 C          61.5151   86.9878   10.1040 C.ar    1  UNL1       -0.0077
     11 C          63.2532   84.2895   10.4407 C.3     1  UNL1        0.0116
     12 C          62.9172   85.2351   11.5556 C.3     1  UNL1        0.0681
     13 C          63.0831   84.8018   12.9820 C.ar    1  UNL1        0.0919
     14 N          62.0107   84.7909   14.0307 N.ar    1  UNL1       -0.2408
     15 C          62.6154   84.2856   15.3070 C.ar    1  UNL1        0.1061
     16 C          64.0616   83.9842   15.0472 C.ar    1  UNL1        0.0572
     17 S          64.3507   84.3032   13.6102 S.2     1  UNL1       -0.0699
     18 C          63.5924   87.9479   13.2392 C.3     1  UNL1        0.0394
     19 C          64.0099   89.2879   13.7685 C.3     1  UNL1        0.0765
     20 N          63.7898   89.6253   15.2134 N.3     1  UNL1       -0.2700
     21 C          63.9782   91.0345   15.6916 C.3     1  UNL1        0.0897
     22 C          63.3813   88.5535   16.1800 C.3     1  UNL1        0.0897
@<TRIPOS>BOND
     1    12    11    1
     2    12     1    1
     3     1     2    2
     4     2    18    1
     5    18    19    1
     6    19    20    1
     7    20    21    1
     8    20    22    1
     9     2     3    1
    10     3     4    1
    11     4     5   ar
    12     5     6   ar
    13     6     7    1
    14     6     8   ar
    15     8     9   ar
    16     9    10   ar
    17    12    13    1
    18    13    14   ar
    19    14    15   ar
    20    15    16   ar
    21    16    17   ar
    22    10     1    1
    23    17    13   ar
    24    10     4   ar
@<TRIPOS>MOLECULE
*****
 22 24 0 0 0
SMALL
GASTEIGER

@<TRIPOS>ATOM
      1 C          63.0058   88.1563   12.1145 C.2     1  UNL1       -0.0242
      2 C          62.2585   87.5042   10.9892 C.2     1  UNL1       -0.0420
      3 C          62.2753   86.0221   11.2191 C.3     1  UNL1        0.0481
      4 C          63.0329   85.7581   12.4866 C.ar    1  UNL1       -0.0162
      5 C          63.3700   84.4871   13.2082 C.ar    1  UNL1        0.0257
      6 C          64.1585   84.5351   14.4833 C.ar    1  UNL1        0.1398
      7 F          64.4956   83.2640   15.2050 F       1  UNL1       -0.2042
      8 C          64.6100   85.8541   15.0367 C.ar    1  UNL1        0.0296
      9 C          64.2730   87.1252   14.3150 C.ar    1  UNL1        0.0017
     10 C          63.4844   87.0771   13.0400 C.ar    1  UNL1       -0.0077
     11 C          63.0652   90.5542   11.1160 C.3     1  UNL1        0.0116
     12 C          63.2344   89.6290   12.2846 C.3     1  UNL1        0.0681
     13 C          63.6322   90.1766   13.6232 C.ar    1  UNL1        0.0919
     14 N          62.8438   90.0586   14.8938 N.ar    1  UNL1       -0.2408
     15 C          63.6126   90.7475   15.9820 C.ar    1  UNL1        0.1061
     16 C          64.8762   91.2913   15.3841 C.ar    1  UNL1        0.0572
     17 S          64.8883   90.9384   13.9261 S.2     1  UNL1       -0.0699
     18 C          61.6086   88.2103    9.8364 C.3     1  UNL1        0.0394
     19 C          60.1434   88.0257    9.5734 C.3     1  UNL1        0.0765
     20 N          59.6587   87.7672    8.1776 N.3     1  UNL1       -0.2700
     21 C          59.3582   88.9175    7.2630 C.3     1  UNL1        0.0897
     22 C          59.4744   86.3585    7.6965 C.3     1  UNL1        0.0897
@<TRIPOS>BOND
     1    12    11    1
     2    12     1    1
     3     1     2    2
     4     2    18    1
     5    18    19    1
     6    19    20    1
     7    20    21    1
     8    20    22    1
     9     2     3    1
    10     3     4    1
    11     4     5   ar
    12     5     6   ar
    13     6     7    1
    14     6     8   ar
    15     8     9   ar
    16     9    10   ar
    17    12    13    1
    18    13    14   ar
    19    14    15   ar
    20    15    16   ar
    21    16    17   ar
    22    10     1    1
    23    17    13   ar
    24    10     4   ar
@<TRIPOS>MOLECULE
*****
 22 24 0 0 0
SMALL
GASTEIGER

@<TRIPOS>ATOM
      1 C          62.9783   88.4562   12.1227 C.2     1  UNL1       -0.0242
      2 C          63.4174   87.2290   12.8649 C.2     1  UNL1       -0.0420
      3 C          62.8350   86.0339   12.1702 C.3     1  UNL1        0.0481
      4 C          62.0359   86.5226   10.9986 C.ar    1  UNL1       -0.0162
      5 C          61.2391   85.7978    9.9547 C.ar    1  UNL1        0.0257
      6 C          60.5309   86.5700    8.8815 C.ar    1  UNL1        0.1398
      7 F          59.7340   85.8452    7.8375 F       1  UNL1       -0.2042
      8 C          60.6194   88.0671    8.8521 C.ar    1  UNL1        0.0296
      9 C          61.4162   88.7920    9.8959 C.ar    1  UNL1        0.0017
     10 C          62.1245   88.0197   10.9692 C.ar    1  UNL1       -0.0077
     11 C          63.4711   90.8994   11.3887 C.3     1  UNL1        0.0116
     12 C          63.3310   89.8716   12.4724 C.3     1  UNL1        0.0681
     13 C          63.5436   90.2593   13.9057 C.ar    1  UNL1        0.0919
     14 N          62.6826   89.8552   15.0655 N.ar    1  UNL1       -0.2408
     15 C          63.2614   90.4654   16.3074 C.ar    1  UNL1        0.1061
     16 C          64.4802   91.2468   15.9153 C.ar    1  UNL1        0.0572
     17 S          64.6547   91.1194   14.4308 S.2     1  UNL1       -0.0699
     18 C          64.2863   87.2016   14.0873 C.3     1  UNL1        0.0394
     19 C          64.4030   85.9440   14.8965 C.3     1  UNL1        0.0765
     20 N          63.3110   85.5628   15.8517 N.3     1  UNL1       -0.2700
     21 C          62.5075   84.3185   15.6143 C.3     1  UNL1        0.0897
     22 C          63.0226   86.4257   17.0442 C.3     1  UNL1        0.0897
@<TRIPOS>BOND
     1    12    11    1
     2    12     1    1
     3     1     2    2
     4     2    18    1
     5    18    19    1
     6    19    20    1
     7    20    21    1
     8    20    22    1
     9     2     3    1
    10     3     4    1
    11     4     5   ar
    12     5     6   ar
    13     6     7    1
    14     6     8   ar
    15     8     9   ar
    16     9    10   ar
    17    12    13    1
    18    13    14   ar
    19    14    15   ar
    20    15    16   ar
    21    16    17   ar
    22    10     1    1
    23    17    13   ar
    24    10     4   ar
@<TRIPOS>MOLECULE
*****
 22 24 0 0 0
SMALL
GASTEIGER

@<TRIPOS>ATOM
      1 C          63.3084   88.6030   12.5060 C.2     1  UNL1       -0.0242
      2 C          63.9135   89.4296   13.6017 C.2     1  UNL1       -0.0420
      3 C          64.4058   88.4966   14.6681 C.3     1  UNL1        0.0481
      4 C          64.1049   87.0935   14.2315 C.ar    1  UNL1       -0.0162
      5 C          64.3610   85.7644   14.8780 C.ar    1  UNL1        0.0257
      6 C          63.9388   84.5012   14.1882 C.ar    1  UNL1        0.1398
      7 F          64.1948   83.1720   14.8348 F       1  UNL1       -0.2042
      8 C          63.2605   84.5669   12.8519 C.ar    1  UNL1        0.0296
      9 C          63.0045   85.8960   12.2054 C.ar    1  UNL1        0.0017
     10 C          63.4267   87.1592   12.8952 C.ar    1  UNL1       -0.0077
     11 C          63.0077   90.5188   10.7769 C.3     1  UNL1        0.0116
     12 C          62.6931   89.1281   11.2428 C.3     1  UNL1        0.0681
     13 C          61.7631   88.2625   10.4454 C.ar    1  UNL1        0.0919
     14 N          62.1556   87.3421    9.3280 N.ar    1  UNL1       -0.2408
     15 C          60.9123   86.6761    8.8175 C.ar    1  UNL1        0.1061
     16 C          59.7513   87.1850    9.6193 C.ar    1  UNL1        0.0572
     17 S          60.2771   88.1655   10.6255 S.2     1  UNL1       -0.0699
     18 C          64.0094   90.9263   13.6267 C.3     1  UNL1        0.0394
     19 C          65.2077   91.5910   14.2368 C.3     1  UNL1        0.0765
     20 N          65.8414   92.7672   13.5548 N.3     1  UNL1       -0.2700
     21 C          65.6322   92.9844   12.0854 C.3     1  UNL1        0.0897
     22 C          66.6843   93.7261   14.3422 C.3     1  UNL1        0.0897
@<TRIPOS>BOND
     1    12    11    1
     2    12     1    1
     3     1     2    2
     4     2    18    1
     5    18    19    1
     6    19    20    1
     7    20    21    1
     8    20    22    1
     9     2     3    1
    10     3     4    1
    11     4     5   ar
    12     5     6   ar
    13     6     7    1
    14     6     8   ar
    15     8     9   ar
    16     9    10   ar
    17    12    13    1
    18    13    14   ar
    19    14    15   ar
    20    15    16   ar
    21    16    17   ar
    22    10     1    1
    23    17    13   ar
    24    10     4   ar
