@<TRIPOS>MOLECULE
*****
 23 25 0 0 0
SMALL
GASTEIGER

@<TRIPOS>ATOM
      1 N          62.7895   85.6321   13.1507 N.pl3   1  UNL1       -0.3267
      2 H          62.3792   85.8296   14.0236 H       1  UNL1        0.1472
      3 C          62.4426   86.4660   11.9531 C.ar    1  UNL1        0.0798
      4 C          61.7237   85.8473   10.7911 C.ar    1  UNL1        0.0189
      5 C          61.3769   86.6812    9.5935 C.ar    1  UNL1        0.0204
      6 C          61.7491   88.1339    9.5579 C.ar    1  UNL1        0.0812
      7 N          62.4680   88.7526   10.7199 N.ar    1  UNL1       -0.2919
      8 C          62.9599   90.1477   10.9683 C.ar    1  UNL1        0.0567
      9 C          62.8248   91.3103   10.0302 C.3     1  UNL1        0.0517
     10 C          63.6108   90.1760   12.3195 C.ar    1  UNL1        0.0730
     11 C          64.2408   91.3720   12.9698 C.3     1  UNL1        0.0534
     12 N          63.5211   88.7984   12.9061 N.ar    1  UNL1       -0.2299
     13 C          62.8148   87.9187   11.9174 C.ar    1  UNL1        0.1603
     14 C          63.7614   84.4973   13.0184 C.3     1  UNL1        0.1137
     15 C          63.5850   82.1702   11.8767 C.ar    1  UNL1       -0.0248
     16 C          63.0900   80.7542   11.8833 C.ar    1  UNL1       -0.0045
     17 C          62.2766   80.2493   13.0381 C.ar    1  UNL1       -0.0007
     18 C          61.9582   81.1605   14.1863 C.ar    1  UNL1       -0.0045
     19 C          62.4531   82.5764   14.1798 C.ar    1  UNL1       -0.0245
     20 C          62.1346   83.4875   15.3280 C.3     1  UNL1        0.0307
     21 C          63.2665   83.0813   13.0250 C.ar    1  UNL1       -0.0105
     22 C          63.7548   83.5230    9.6652 C.3     1  UNL1        0.0050
     23 C          64.3983   82.6750   10.7220 C.3     1  UNL1        0.0261
@<TRIPOS>BOND
     1    22    23    1
     2    23    15    1
     3    15    16   ar
     4    16    17   ar
     5    17    18   ar
     6    18    19   ar
     7    19    20    1
     8    19    21   ar
     9    21    14    1
    10    14     1    1
    11     1     3    1
    12     3     4   ar
    13     4     5   ar
    14     5     6   ar
    15     6     7   ar
    16     7     8   ar
    17     8     9    1
    18     8    10   ar
    19    10    11    1
    20    10    12   ar
    21    12    13   ar
    22    21    15   ar
    23    13     3   ar
    24    13     7   ar
    25     1     2    1
@<TRIPOS>MOLECULE
*****
 23 25 0 0 0
SMALL
GASTEIGER

@<TRIPOS>ATOM
      1 N          61.7753   85.9430   11.8439 N.pl3   1  UNL1       -0.3267
      2 H          60.8847   85.5505   11.9917 H       1  UNL1        0.1472
      3 C          61.9014   87.3135   11.2471 C.ar    1  UNL1        0.0798
      4 C          61.2158   87.6334    9.9519 C.ar    1  UNL1        0.0189
      5 C          61.3419   89.0038    9.3552 C.ar    1  UNL1        0.0204
      6 C          62.1535   90.0542   10.0537 C.ar    1  UNL1        0.0812
      7 N          62.8391   89.7343   11.3489 N.ar    1  UNL1       -0.2919
      8 C          63.7002   90.5588   12.2592 C.ar    1  UNL1        0.0567
      9 C          64.0872   91.9924   12.0474 C.3     1  UNL1        0.0517
     10 C          64.1063   89.6979   13.4186 C.ar    1  UNL1        0.0730
     11 C          64.9707   90.1197   14.5697 C.3     1  UNL1        0.0534
     12 N          63.4962   88.3414   13.2248 N.ar    1  UNL1       -0.2299
     13 C          62.7130   88.3639   11.9456 C.ar    1  UNL1        0.1603
     14 C          63.0064   85.1707   12.2155 C.3     1  UNL1        0.1137
     15 C          62.4888   83.1550   13.7708 C.ar    1  UNL1       -0.0248
     16 C          62.4062   81.6739   13.9938 C.ar    1  UNL1       -0.0045
     17 C          62.7586   80.7276   12.8846 C.ar    1  UNL1       -0.0007
     18 C          63.1936   81.2624   11.5524 C.ar    1  UNL1       -0.0045
     19 C          63.2762   82.7433   11.3293 C.ar    1  UNL1       -0.0245
     20 C          63.7111   83.2781    9.9971 C.3     1  UNL1        0.0307
     21 C          62.9238   83.6897   12.4385 C.ar    1  UNL1       -0.0105
     22 C          63.2187   84.6915   15.7346 C.3     1  UNL1        0.0050
     23 C          62.1365   84.1013   14.8800 C.3     1  UNL1        0.0261
@<TRIPOS>BOND
     1    22    23    1
     2    23    15    1
     3    15    16   ar
     4    16    17   ar
     5    17    18   ar
     6    18    19   ar
     7    19    20    1
     8    19    21   ar
     9    21    14    1
    10    14     1    1
    11     1     3    1
    12     3     4   ar
    13     4     5   ar
    14     5     6   ar
    15     6     7   ar
    16     7     8   ar
    17     8     9    1
    18     8    10   ar
    19    10    11    1
    20    10    12   ar
    21    12    13   ar
    22    21    15   ar
    23    13     3   ar
    24    13     7   ar
    25     1     2    1
@<TRIPOS>MOLECULE
*****
 23 25 0 0 0
SMALL
GASTEIGER

@<TRIPOS>ATOM
      1 N          63.4808   88.6942   13.0740 N.pl3   1  UNL1       -0.3267
      2 H          64.0555   88.4896   13.8467 H       1  UNL1        0.1472
      3 C          62.9995   87.5873   12.1832 C.ar    1  UNL1        0.0798
      4 C          62.4055   87.9073   10.8436 C.ar    1  UNL1        0.0189
      5 C          61.9243   86.8005    9.9529 C.ar    1  UNL1        0.0204
      6 C          62.0371   85.3737   10.4018 C.ar    1  UNL1        0.0812
      7 N          62.6311   85.0538   11.7415 N.ar    1  UNL1       -0.2919
      8 C          62.8706   83.7526   12.4483 C.ar    1  UNL1        0.0567
      9 C          62.5390   82.3884   11.9203 C.3     1  UNL1        0.0517
     10 C          63.4998   84.0553   13.7760 C.ar    1  UNL1        0.0730
     11 C          63.9079   83.0467   14.8087 C.3     1  UNL1        0.0534
     12 N          63.6492   85.5435   13.8896 N.ar    1  UNL1       -0.2299
     13 C          63.1123   86.1606   12.6322 C.ar    1  UNL1        0.1603
     14 C          63.0863   90.1127   12.7875 C.3     1  UNL1        0.1137
     15 C          65.1477   91.5311   13.4863 C.ar    1  UNL1       -0.0248
     16 C          66.1979   92.5489   13.1522 C.ar    1  UNL1       -0.0045
     17 C          66.2367   93.1658   11.7855 C.ar    1  UNL1       -0.0007
     18 C          65.2253   92.7650   10.7528 C.ar    1  UNL1       -0.0045
     19 C          64.1752   91.7473   11.0868 C.ar    1  UNL1       -0.0245
     20 C          63.1638   91.3466   10.0540 C.3     1  UNL1        0.0307
     21 C          64.1364   91.1304   12.4535 C.ar    1  UNL1       -0.0105
     22 C          64.2639   91.5283   15.9293 C.3     1  UNL1        0.0050
     23 C          65.1090   90.9142   14.8529 C.3     1  UNL1        0.0261
@<TRIPOS>BOND
     1    22    23    1
     2    23    15    1
     3    15    16   ar
     4    16    17   ar
     5    17    18   ar
     6    18    19   ar
     7    19    20    1
     8    19    21   ar
     9    21    14    1
    10    14     1    1
    11     1     3    1
    12     3     4   ar
    13     4     5   ar
    14     5     6   ar
    15     6     7   ar
    16     7     8   ar
    17     8     9    1
    18     8    10   ar
    19    10    11    1
    20    10    12   ar
    21    12    13   ar
    22    21    15   ar
    23    13     3   ar
    24    13     7   ar
    25     1     2    1
@<TRIPOS>MOLECULE
*****
 23 25 0 0 0
SMALL
GASTEIGER

@<TRIPOS>ATOM
      1 N          62.3213   87.3106   12.3272 N.pl3   1  UNL1       -0.3267
      2 H          62.4653   87.2137   13.2963 H       1  UNL1        0.1472
      3 C          62.6315   88.6123   11.6493 C.ar    1  UNL1        0.0798
      4 C          62.0363   88.9194   10.3072 C.ar    1  UNL1        0.0189
      5 C          62.3465   90.2211    9.6294 C.ar    1  UNL1        0.0204
      6 C          63.2519   91.2156   10.2937 C.ar    1  UNL1        0.0812
      7 N          63.8470   90.9084   11.6358 N.ar    1  UNL1       -0.2919
      8 C          64.7668   91.6880   12.5282 C.ar    1  UNL1        0.0567
      9 C          65.3295   93.0486   12.2415 C.3     1  UNL1        0.0517
     10 C          65.0250   90.8682   13.7575 C.ar    1  UNL1        0.0730
     11 C          65.8914   91.2651   14.9160 C.3     1  UNL1        0.0534
     12 N          64.2649   89.5819   13.6250 N.ar    1  UNL1       -0.2299
     13 C          63.5368   89.6068   12.3137 C.ar    1  UNL1        0.1603
     14 C          61.7917   86.1566   11.5286 C.3     1  UNL1        0.1137
     15 C          63.1703   84.6512    9.9214 C.ar    1  UNL1       -0.0248
     16 C          64.0286   83.4430    9.6893 C.ar    1  UNL1       -0.0045
     17 C          64.3664   82.5322   10.8322 C.ar    1  UNL1       -0.0007
     18 C          63.8460   82.8296   12.2073 C.ar    1  UNL1       -0.0045
     19 C          62.9878   84.0377   12.4394 C.ar    1  UNL1       -0.0245
     20 C          62.4674   84.3350   13.8145 C.3     1  UNL1        0.0307
     21 C          62.6499   84.9485   11.2964 C.ar    1  UNL1       -0.0105
     22 C          62.5711   84.9908    7.4163 C.3     1  UNL1        0.0050
     23 C          62.8325   85.5620    8.7784 C.3     1  UNL1        0.0261
@<TRIPOS>BOND
     1    22    23    1
     2    23    15    1
     3    15    16   ar
     4    16    17   ar
     5    17    18   ar
     6    18    19   ar
     7    19    20    1
     8    19    21   ar
     9    21    14    1
    10    14     1    1
    11     1     3    1
    12     3     4   ar
    13     4     5   ar
    14     5     6   ar
    15     6     7   ar
    16     7     8   ar
    17     8     9    1
    18     8    10   ar
    19    10    11    1
    20    10    12   ar
    21    12    13   ar
    22    21    15   ar
    23    13     3   ar
    24    13     7   ar
    25     1     2    1
@<TRIPOS>MOLECULE
*****
 23 25 0 0 0
SMALL
GASTEIGER

@<TRIPOS>ATOM
      1 N          62.8882   89.5612   11.0410 N.pl3   1  UNL1       -0.3267
      2 H          62.8865   90.1236   10.2330 H       1  UNL1        0.1472
      3 C          63.6388   90.0044   12.2618 C.ar    1  UNL1        0.0798
      4 C          63.5757   89.1881   13.5186 C.ar    1  UNL1        0.0189
      5 C          64.3263   89.6313   14.7393 C.ar    1  UNL1        0.0204
      6 C          65.1401   90.8909   14.7031 C.ar    1  UNL1        0.0812
      7 N          65.2032   91.7072   13.4463 N.ar    1  UNL1       -0.2919
      8 C          65.9167   92.9840   13.1136 C.ar    1  UNL1        0.0567
      9 C          66.7870   93.7759   14.0439 C.3     1  UNL1        0.0517
     10 C          65.6070   93.3299   11.6872 C.ar    1  UNL1        0.0730
     11 C          66.1133   94.5285   10.9407 C.3     1  UNL1        0.0534
     12 N          64.7021   92.2669   11.1384 N.ar    1  UNL1       -0.2299
     13 C          64.4526   91.2640   12.2257 C.ar    1  UNL1        0.1603
     14 C          62.1401   88.2611   11.0515 C.3     1  UNL1        0.1137
     15 C          61.4772   86.5457    9.2163 C.ar    1  UNL1       -0.0248
     16 C          60.6234   86.1622    8.0441 C.ar    1  UNL1       -0.0045
     17 C          59.5788   87.1106    7.5349 C.ar    1  UNL1       -0.0007
     18 C          59.3880   88.4426    8.1979 C.ar    1  UNL1       -0.0045
     19 C          60.2417   88.8261    9.3701 C.ar    1  UNL1       -0.0245
     20 C          60.0509   90.1580   10.0330 C.3     1  UNL1        0.0307
     21 C          61.2864   87.8776    9.8793 C.ar    1  UNL1       -0.0105
     22 C          63.3196   84.7716    8.7603 C.3     1  UNL1        0.0050
     23 C          62.5218   85.5972    9.7255 C.3     1  UNL1        0.0261
@<TRIPOS>BOND
     1    22    23    1
     2    23    15    1
     3    15    16   ar
     4    16    17   ar
     5    17    18   ar
     6    18    19   ar
     7    19    20    1
     8    19    21   ar
     9    21    14    1
    10    14     1    1
    11     1     3    1
    12     3     4   ar
    13     4     5   ar
    14     5     6   ar
    15     6     7   ar
    16     7     8   ar
    17     8     9    1
    18     8    10   ar
    19    10    11    1
    20    10    12   ar
    21    12    13   ar
    22    21    15   ar
    23    13     3   ar
    24    13     7   ar
    25     1     2    1
@<TRIPOS>MOLECULE
*****
 23 25 0 0 0
SMALL
GASTEIGER

@<TRIPOS>ATOM
      1 N          63.8320   85.2185   13.6775 N.pl3   1  UNL1       -0.3267
      2 H          64.7468   84.9240   13.4635 H       1  UNL1        0.1472
      3 C          63.5836   86.0809   14.8795 C.ar    1  UNL1        0.0798
      4 C          63.1713   85.4554   16.1790 C.ar    1  UNL1        0.0189
      5 C          62.9228   86.3178   17.3808 C.ar    1  UNL1        0.0204
      6 C          63.0867   87.8057   17.2832 C.ar    1  UNL1        0.0812
      7 N          63.4989   88.4311   15.9836 N.ar    1  UNL1       -0.2919
      8 C          63.7385   89.8579   15.5878 C.ar    1  UNL1        0.0567
      9 C          63.6049   91.0551   16.4816 C.3     1  UNL1        0.0517
     10 C          64.1350   89.8774   14.1413 C.ar    1  UNL1        0.0730
     11 C          64.4676   91.0975   13.3345 C.3     1  UNL1        0.0534
     12 N          64.1405   88.4626   13.6431 N.ar    1  UNL1       -0.2299
     13 C          63.7474   87.5687   14.7818 C.ar    1  UNL1        0.1603
     14 C          62.6868   84.8047   12.8016 C.3     1  UNL1        0.1137
     15 C          63.4522   83.9171   10.4830 C.ar    1  UNL1       -0.0248
     16 C          63.5476   84.0833    8.9952 C.ar    1  UNL1       -0.0045
     17 C          62.9730   85.3033    8.3385 C.ar    1  UNL1       -0.0007
     18 C          62.3030   86.3572    9.1695 C.ar    1  UNL1       -0.0045
     19 C          62.2076   86.1910   10.6571 C.ar    1  UNL1       -0.0245
     20 C          61.5375   87.2448   11.4881 C.3     1  UNL1        0.0307
     21 C          62.7822   84.9709   11.3139 C.ar    1  UNL1       -0.0105
     22 C          63.1825   81.4690   11.3101 C.3     1  UNL1        0.0050
     23 C          64.0268   82.6970   11.1397 C.3     1  UNL1        0.0261
@<TRIPOS>BOND
     1    22    23    1
     2    23    15    1
     3    15    16   ar
     4    16    17   ar
     5    17    18   ar
     6    18    19   ar
     7    19    20    1
     8    19    21   ar
     9    21    14    1
    10    14     1    1
    11     1     3    1
    12     3     4   ar
    13     4     5   ar
    14     5     6   ar
    15     6     7   ar
    16     7     8   ar
    17     8     9    1
    18     8    10   ar
    19    10    11    1
    20    10    12   ar
    21    12    13   ar
    22    21    15   ar
    23    13     3   ar
    24    13     7   ar
    25     1     2    1
@<TRIPOS>MOLECULE
*****
 23 25 0 0 0
SMALL
GASTEIGER

@<TRIPOS>ATOM
      1 N          62.3345   87.3475   12.3039 N.pl3   1  UNL1       -0.3267
      2 H          62.4846   87.2343   13.2703 H       1  UNL1        0.1472
      3 C          62.6583   88.6544   11.6426 C.ar    1  UNL1        0.0798
      4 C          62.0808   88.9771   10.2964 C.ar    1  UNL1        0.0189
      5 C          62.4046   90.2839    9.6351 C.ar    1  UNL1        0.0204
      6 C          63.3058   91.2681   10.3201 C.ar    1  UNL1        0.0812
      7 N          63.8833   90.9454   11.6663 N.ar    1  UNL1       -0.2919
      8 C          64.7953   91.7124   12.5773 C.ar    1  UNL1        0.0567
      9 C          65.3670   93.0733   12.3108 C.3     1  UNL1        0.0517
     10 C          65.0352   90.8796   13.8016 C.ar    1  UNL1        0.0730
     11 C          65.8890   91.2615   14.9744 C.3     1  UNL1        0.0534
     12 N          64.2714   89.5979   13.6473 N.ar    1  UNL1       -0.2299
     13 C          63.5595   89.6386   12.3276 C.ar    1  UNL1        0.1603
     14 C          61.7820   86.2131   11.4928 C.3     1  UNL1        0.1137
     15 C          63.0618   84.0967   12.2885 C.ar    1  UNL1       -0.0248
     16 C          63.9210   82.9061   11.9813 C.ar    1  UNL1       -0.0045
     17 C          64.3595   82.6413   10.5715 C.ar    1  UNL1       -0.0007
     18 C          63.9389   83.5671    9.4688 C.ar    1  UNL1       -0.0045
     19 C          63.0797   84.7577    9.7759 C.ar    1  UNL1       -0.0245
     20 C          62.6591   85.6835    8.6732 C.3     1  UNL1        0.0307
     21 C          62.6412   85.0225   11.1858 C.ar    1  UNL1       -0.0105
     22 C          63.6356   84.7304   14.7418 C.3     1  UNL1        0.0050
     23 C          62.6233   84.3615   13.6982 C.3     1  UNL1        0.0261
@<TRIPOS>BOND
     1    22    23    1
     2    23    15    1
     3    15    16   ar
     4    16    17   ar
     5    17    18   ar
     6    18    19   ar
     7    19    20    1
     8    19    21   ar
     9    21    14    1
    10    14     1    1
    11     1     3    1
    12     3     4   ar
    13     4     5   ar
    14     5     6   ar
    15     6     7   ar
    16     7     8   ar
    17     8     9    1
    18     8    10   ar
    19    10    11    1
    20    10    12   ar
    21    12    13   ar
    22    21    15   ar
    23    13     3   ar
    24    13     7   ar
    25     1     2    1
@<TRIPOS>MOLECULE
*****
 23 25 0 0 0
SMALL
GASTEIGER

@<TRIPOS>ATOM
      1 N          62.9278   89.6281   11.1230 N.pl3   1  UNL1       -0.3267
      2 H          62.8648   90.2198   10.3387 H       1  UNL1        0.1472
      3 C          63.6448   90.0915   12.3564 C.ar    1  UNL1        0.0798
      4 C          63.5180   89.3156   13.6338 C.ar    1  UNL1        0.0189
      5 C          64.2351   89.7789   14.8671 C.ar    1  UNL1        0.0204
      6 C          65.0789   91.0183   14.8230 C.ar    1  UNL1        0.0812
      7 N          65.2057   91.7942   13.5456 N.ar    1  UNL1       -0.2919
      8 C          65.9603   93.0440   13.2010 C.ar    1  UNL1        0.0567
      9 C          66.8154   93.8442   14.1382 C.3     1  UNL1        0.0517
     10 C          65.7096   93.3530   11.7548 C.ar    1  UNL1        0.0730
     11 C          66.2700   94.5166   10.9918 C.3     1  UNL1        0.0534
     12 N          64.8001   92.2942   11.2055 N.ar    1  UNL1       -0.2299
     13 C          64.4887   91.3308   12.3123 C.ar    1  UNL1        0.1603
     14 C          62.3067   88.2633   11.0847 C.3     1  UNL1        0.1137
     15 C          60.3688   88.8637    9.4618 C.ar    1  UNL1       -0.0248
     16 C          59.4556   88.4865    8.3331 C.ar    1  UNL1       -0.0045
     17 C          59.5673   87.1319    7.6987 C.ar    1  UNL1       -0.0007
     18 C          60.5921   86.1544    8.1929 C.ar    1  UNL1       -0.0045
     19 C          61.5052   86.5315    9.3216 C.ar    1  UNL1       -0.0245
     20 C          62.5300   85.5540    9.8158 C.3     1  UNL1        0.0307
     21 C          61.3936   87.8862    9.9561 C.ar    1  UNL1       -0.0105
     22 C          59.4534   90.3952   11.3503 C.3     1  UNL1        0.0050
     23 C          60.2571   90.2183   10.0962 C.3     1  UNL1        0.0261
@<TRIPOS>BOND
     1    22    23    1
     2    23    15    1
     3    15    16   ar
     4    16    17   ar
     5    17    18   ar
     6    18    19   ar
     7    19    20    1
     8    19    21   ar
     9    21    14    1
    10    14     1    1
    11     1     3    1
    12     3     4   ar
    13     4     5   ar
    14     5     6   ar
    15     6     7   ar
    16     7     8   ar
    17     8     9    1
    18     8    10   ar
    19    10    11    1
    20    10    12   ar
    21    12    13   ar
    22    21    15   ar
    23    13     3   ar
    24    13     7   ar
    25     1     2    1
@<TRIPOS>MOLECULE
*****
 23 25 0 0 0
SMALL
GASTEIGER

@<TRIPOS>ATOM
      1 N          64.4214   88.1340   14.3037 N.pl3   1  UNL1       -0.3267
      2 H          65.2905   87.9997   13.8610 H       1  UNL1        0.1472
      3 C          63.7711   86.9998   15.0391 C.ar    1  UNL1        0.0798
      4 C          63.4010   87.1571   16.4842 C.ar    1  UNL1        0.0189
      5 C          62.7507   86.0230   17.2195 C.ar    1  UNL1        0.0204
      6 C          62.4705   84.7316   16.5098 C.ar    1  UNL1        0.0812
      7 N          62.8406   84.5743   15.0648 N.ar    1  UNL1       -0.2919
      8 C          62.6890   83.4283   14.1088 C.ar    1  UNL1        0.0567
      9 C          62.0866   82.0912   14.4238 C.3     1  UNL1        0.0517
     10 C          63.2457   83.8543   12.7826 C.ar    1  UNL1        0.0730
     11 C          63.2975   83.0178   11.5385 C.3     1  UNL1        0.0534
     12 N          63.7413   85.2634   12.9189 N.ar    1  UNL1       -0.2299
     13 C          63.4909   85.7084   14.3294 C.ar    1  UNL1        0.1603
     14 C          63.7477   89.4728   14.2428 C.3     1  UNL1        0.1137
     15 C          63.2532   90.3691   11.8549 C.ar    1  UNL1       -0.0248
     16 C          63.5632   91.3144   10.7322 C.ar    1  UNL1       -0.0045
     17 C          64.6773   92.3086   10.8747 C.ar    1  UNL1       -0.0007
     18 C          65.4816   92.3575   12.1399 C.ar    1  UNL1       -0.0045
     19 C          65.1717   91.4122   13.2626 C.ar    1  UNL1       -0.0245
     20 C          65.9760   91.4611   14.5278 C.3     1  UNL1        0.0307
     21 C          64.0575   90.4180   13.1201 C.ar    1  UNL1       -0.0105
     22 C          62.3903   88.0583   11.0391 C.3     1  UNL1        0.0050
     23 C          62.1391   89.3750   11.7124 C.3     1  UNL1        0.0261
@<TRIPOS>BOND
     1    22    23    1
     2    23    15    1
     3    15    16   ar
     4    16    17   ar
     5    17    18   ar
     6    18    19   ar
     7    19    20    1
     8    19    21   ar
     9    21    14    1
    10    14     1    1
    11     1     3    1
    12     3     4   ar
    13     4     5   ar
    14     5     6   ar
    15     6     7   ar
    16     7     8   ar
    17     8     9    1
    18     8    10   ar
    19    10    11    1
    20    10    12   ar
    21    12    13   ar
    22    21    15   ar
    23    13     3   ar
    24    13     7   ar
    25     1     2    1
