@<TRIPOS>MOLECULE
*****
 35 39 0 0 0
SMALL
GASTEIGER

@<TRIPOS>ATOM
      1 C          65.7499   92.5910   12.9259 C.ar    1  UNL1        0.0930
      2 C          66.0753   93.4885   14.0829 C.ar    1  UNL1        0.1067
      3 N          65.6194   92.8082   15.3396 N.ar    1  UNL1       -0.2252
      4 C          65.0123   91.4903   14.9593 C.ar    1  UNL1        0.1586
      5 N          64.3965   90.3951   15.7786 N.ar    1  UNL1       -0.3349
      6 C          63.8613   89.1658   15.1061 C.ar    1  UNL1        0.0945
      7 C          63.9420   89.0316   13.6143 C.ar    1  UNL1        0.1176
      8 N          64.5579   90.1267   12.7950 N.ar    1  UNL1       -0.2390
      9 C          65.0930   91.3561   13.4675 C.ar    1  UNL1        0.1210
     10 H          64.3435   90.4832   16.7577 H       1  UNL1        0.1675
     11 C          63.4069   87.8021   12.9419 C.ar    1  UNL1        0.1213
     12 N          63.5822   86.3902   13.4170 N.ar    1  UNL1       -0.1678
     13 N          62.8861   85.4842   12.4451 N.ar    1  UNL1       -0.2526
     14 C          62.2806   86.3363   11.3692 C.ar    1  UNL1        0.0815
     15 C          61.4778   85.9927   10.1496 C.ar    1  UNL1        0.0484
     16 C          60.9969   87.0817    9.2370 C.ar    1  UNL1        0.1416
     17 F          60.1940   86.7381    8.0174 F       1  UNL1       -0.2041
     18 C          61.3187   88.5143    9.5441 C.ar    1  UNL1        0.0298
     19 C          62.1215   88.8578   10.7637 C.ar    1  UNL1        0.0054
     20 C          62.6025   87.7688   11.6762 C.ar    1  UNL1        0.0383
     21 C          62.8091   83.9888   12.5335 C.3     1  UNL1        0.1079
     22 C          63.1416   83.1486   11.3362 C.3     1  UNL1        0.0415
     23 C          63.0645   81.6532   11.4245 C.3     1  UNL1        0.0706
     24 N          62.6550   80.9980   12.7102 N.3     1  UNL1       -0.2974
     25 C          62.3224   81.8382   13.9075 C.3     1  UNL1        0.0706
     26 C          62.3995   83.3336   13.8191 C.3     1  UNL1        0.0415
     27 H          63.4217   80.3841   12.9851 H       1  UNL1        0.1232
     28 N          67.3309   93.5138   11.0822 N.am    1  UNL1       -0.3039
     29 C          66.0320   92.8781   11.4809 C.2     1  UNL1        0.2488
     30 O          65.0154   92.5295   10.4346 O.2     1  UNL1       -0.2700
     31 H          67.9983   93.7426   11.7689 H       1  UNL1        0.1496
     32 C          68.2325   92.4428    9.4884 C.3     1  UNL1        0.0196
     33 C          67.6130   93.8009    9.6372 C.3     1  UNL1        0.0572
     34 C          66.9936   95.1589    9.7860 C.3     1  UNL1        0.0196
     35 C          67.8951   94.0879    8.1922 C.3     1  UNL1        0.0196
@<TRIPOS>BOND
     1    32    33    1
     2    33    34    1
     3    33    35    1
     4    33    28    1
     5    28    29   am
     6    29    30    2
     7    29     1    1
     8     1     2   ar
     9     2     3   ar
    10     3     4   ar
    11     4     5   ar
    12     5     6   ar
    13     6     7   ar
    14     7    11    1
    15    11    12   ar
    16    12    13   ar
    17    13    21    1
    18    21    22    1
    19    22    23    1
    20    23    24    1
    21    24    25    1
    22    25    26    1
    23    13    14   ar
    24    14    15   ar
    25    15    16   ar
    26    16    17    1
    27    16    18   ar
    28    18    19   ar
    29    19    20   ar
    30     7     8   ar
    31     8     9   ar
    32     9     1   ar
    33     9     4    1
    34    20    11   ar
    35    26    21    1
    36    20    14   ar
    37    28    31    1
    38     5    10    1
    39    24    27    1
@<TRIPOS>MOLECULE
*****
 35 39 0 0 0
SMALL
GASTEIGER

@<TRIPOS>ATOM
      1 C          65.9528   93.3569   12.7444 C.ar    1  UNL1        0.0930
      2 C          66.5378   93.9535   13.9901 C.ar    1  UNL1        0.1067
      3 N          66.1946   93.0537   15.1402 N.ar    1  UNL1       -0.2252
      4 C          65.3976   91.9011   14.6052 C.ar    1  UNL1        0.1586
      5 N          64.7886   90.7052   15.2751 N.ar    1  UNL1       -0.3349
      6 C          64.0301   89.6966   14.4642 C.ar    1  UNL1        0.0945
      7 C          63.8807   89.8840   12.9835 C.ar    1  UNL1        0.1176
      8 N          64.4897   91.0800   12.3136 N.ar    1  UNL1       -0.2390
      9 C          65.2481   92.0885   13.1245 C.ar    1  UNL1        0.1210
     10 H          64.8866   90.5822   16.2469 H       1  UNL1        0.1675
     11 C          63.1221   88.8754   12.1727 C.ar    1  UNL1        0.1213
     12 N          62.2499   89.1718   10.9888 N.ar    1  UNL1       -0.1678
     13 N          61.6914   87.8729   10.4878 N.ar    1  UNL1       -0.2526
     14 C          62.2185   86.7738   11.3620 C.ar    1  UNL1        0.0815
     15 C          62.0074   85.2888   11.3444 C.ar    1  UNL1        0.0484
     16 C          62.6806   84.4235   12.3680 C.ar    1  UNL1        0.1416
     17 F          62.4695   82.9384   12.3504 F       1  UNL1       -0.2041
     18 C          63.5649   85.0430   13.4093 C.ar    1  UNL1        0.0298
     19 C          63.7759   86.5280   13.4270 C.ar    1  UNL1        0.0054
     20 C          63.1027   87.3934   12.4033 C.ar    1  UNL1        0.0383
     21 C          60.7680   87.7030    9.3180 C.3     1  UNL1        0.1079
     22 C          60.1282   88.9040    8.6869 C.3     1  UNL1        0.0415
     23 C          59.2048   88.7341    7.5171 C.3     1  UNL1        0.0706
     24 N          58.9212   87.3632    6.9784 N.3     1  UNL1       -0.2974
     25 C          59.5611   86.1622    7.6095 C.3     1  UNL1        0.0706
     26 C          60.4844   86.3321    8.7793 C.3     1  UNL1        0.0415
     27 H          59.2050   87.3674    5.9987 H       1  UNL1        0.1232
     28 N          67.2382   94.7685   10.9821 N.am    1  UNL1       -0.3039
     29 C          66.0547   93.9284   11.3612 C.2     1  UNL1        0.2488
     30 O          64.9731   93.6600   10.3573 O.2     1  UNL1       -0.2700
     31 H          67.9481   94.9448   11.6411 H       1  UNL1        0.1496
     32 C          67.9869   94.0731    9.1232 C.3     1  UNL1        0.0196
     33 C          67.3400   95.3401    9.5990 C.3     1  UNL1        0.0572
     34 C          66.6932   96.6070   10.0749 C.3     1  UNL1        0.0196
     35 C          67.4419   95.9115    8.2159 C.3     1  UNL1        0.0196
@<TRIPOS>BOND
     1    32    33    1
     2    33    34    1
     3    33    35    1
     4    33    28    1
     5    28    29   am
     6    29    30    2
     7    29     1    1
     8     1     2   ar
     9     2     3   ar
    10     3     4   ar
    11     4     5   ar
    12     5     6   ar
    13     6     7   ar
    14     7    11    1
    15    11    12   ar
    16    12    13   ar
    17    13    21    1
    18    21    22    1
    19    22    23    1
    20    23    24    1
    21    24    25    1
    22    25    26    1
    23    13    14   ar
    24    14    15   ar
    25    15    16   ar
    26    16    17    1
    27    16    18   ar
    28    18    19   ar
    29    19    20   ar
    30     7     8   ar
    31     8     9   ar
    32     9     1   ar
    33     9     4    1
    34    20    11   ar
    35    26    21    1
    36    20    14   ar
    37    28    31    1
    38     5    10    1
    39    24    27    1
@<TRIPOS>MOLECULE
*****
 35 39 0 0 0
SMALL
GASTEIGER

@<TRIPOS>ATOM
      1 C          61.6833   86.3941   10.9567 C.ar    1  UNL1        0.0930
      2 C          60.4675   85.9001   10.2303 C.ar    1  UNL1        0.1067
      3 N          59.8746   87.0556    9.4798 N.ar    1  UNL1       -0.2252
      4 C          60.7240   88.2638    9.7424 C.ar    1  UNL1        0.1586
      5 N          60.6241   89.6833    9.2683 N.ar    1  UNL1       -0.3349
      6 C          61.6419   90.6940    9.7070 C.ar    1  UNL1        0.0945
      7 C          62.7597   90.2851   10.6199 C.ar    1  UNL1        0.1176
      8 N          62.8597   88.8655   11.0940 N.ar    1  UNL1       -0.2390
      9 C          61.8419   87.8549   10.6552 C.ar    1  UNL1        0.1210
     10 H          59.8904   89.9517    8.6691 H       1  UNL1        0.1675
     11 C          63.7776   91.2958   11.0586 C.ar    1  UNL1        0.1213
     12 N          64.3400   92.4031   10.2174 N.ar    1  UNL1       -0.1678
     13 N          65.3217   93.1684   11.0544 N.ar    1  UNL1       -0.2526
     14 C          65.3660   92.5340   12.4130 C.ar    1  UNL1        0.0815
     15 C          66.1520   92.8607   13.6480 C.ar    1  UNL1        0.0484
     16 C          65.9837   92.0302   14.8856 C.ar    1  UNL1        0.1416
     17 F          66.7698   92.3569   16.1208 F       1  UNL1       -0.2041
     18 C          65.0294   90.8729   14.8883 C.ar    1  UNL1        0.0298
     19 C          64.2434   90.5462   13.6532 C.ar    1  UNL1        0.0054
     20 C          64.4117   91.3768   12.4156 C.ar    1  UNL1        0.0383
     21 C          66.1191   94.3589   10.6107 C.3     1  UNL1        0.1079
     22 C          65.9924   95.6617   11.3433 C.3     1  UNL1        0.0415
     23 C          66.7898   96.8522   10.8997 C.3     1  UNL1        0.0706
     24 N          67.7138   96.7399    9.7235 N.3     1  UNL1       -0.2974
     25 C          67.8405   95.4371    8.9909 C.3     1  UNL1        0.0706
     26 C          67.0431   94.2466    9.4345 C.3     1  UNL1        0.0415
     27 H          68.6467   96.9816   10.0577 H       1  UNL1        0.1232
     28 N          62.6429   84.0831   11.6558 N.am    1  UNL1       -0.3039
     29 C          62.5826   85.5716   11.8312 C.2     1  UNL1        0.2488
     30 O          63.4217   86.2376   12.8811 O.2     1  UNL1       -0.2700
     31 H          62.0921   83.6459   10.9668 H       1  UNL1        0.1496
     32 C          64.5609   83.2053   11.4306 C.3     1  UNL1        0.0196
     33 C          63.5422   83.2606   12.5303 C.3     1  UNL1        0.0572
     34 C          62.5236   83.3159   13.6300 C.3     1  UNL1        0.0196
     35 C          64.4416   82.4382   13.4047 C.3     1  UNL1        0.0196
@<TRIPOS>BOND
     1    32    33    1
     2    33    34    1
     3    33    35    1
     4    33    28    1
     5    28    29   am
     6    29    30    2
     7    29     1    1
     8     1     2   ar
     9     2     3   ar
    10     3     4   ar
    11     4     5   ar
    12     5     6   ar
    13     6     7   ar
    14     7    11    1
    15    11    12   ar
    16    12    13   ar
    17    13    21    1
    18    21    22    1
    19    22    23    1
    20    23    24    1
    21    24    25    1
    22    25    26    1
    23    13    14   ar
    24    14    15   ar
    25    15    16   ar
    26    16    17    1
    27    16    18   ar
    28    18    19   ar
    29    19    20   ar
    30     7     8   ar
    31     8     9   ar
    32     9     1   ar
    33     9     4    1
    34    20    11   ar
    35    26    21    1
    36    20    14   ar
    37    28    31    1
    38     5    10    1
    39    24    27    1
@<TRIPOS>MOLECULE
*****
 35 39 0 0 0
SMALL
GASTEIGER

@<TRIPOS>ATOM
      1 C          61.7391   86.3605   10.7649 C.ar    1  UNL1        0.0930
      2 C          60.5073   85.8803   10.0565 C.ar    1  UNL1        0.1067
      3 N          59.8725   87.0589    9.3799 N.ar    1  UNL1       -0.2252
      4 C          60.7121   88.2676    9.6702 C.ar    1  UNL1        0.1586
      5 N          60.5751   89.7055    9.2656 N.ar    1  UNL1       -0.3349
      6 C          61.5918   90.7117    9.7170 C.ar    1  UNL1        0.0945
      7 C          62.7455   90.2800   10.5730 C.ar    1  UNL1        0.1176
      8 N          62.8824   88.8422   10.9776 N.ar    1  UNL1       -0.2390
      9 C          61.8657   87.8360   10.5262 C.ar    1  UNL1        0.1210
     10 H          59.8179   89.9888    8.7038 H       1  UNL1        0.1675
     11 C          63.7622   91.2863   11.0244 C.ar    1  UNL1        0.1213
     12 N          64.3261   92.4025   10.1960 N.ar    1  UNL1       -0.1678
     13 N          65.3059   93.1591   11.0430 N.ar    1  UNL1       -0.2526
     14 C          65.3476   92.5105   12.3950 C.ar    1  UNL1        0.0815
     15 C          66.1310   92.8244   13.6351 C.ar    1  UNL1        0.0484
     16 C          65.9603   91.9809   14.8635 C.ar    1  UNL1        0.1416
     17 F          66.7438   92.2948   16.1037 F       1  UNL1       -0.2041
     18 C          65.0062   90.8234   14.8521 C.ar    1  UNL1        0.0298
     19 C          64.2228   90.5096   13.6120 C.ar    1  UNL1        0.0054
     20 C          64.3935   91.3531   12.3835 C.ar    1  UNL1        0.0383
     21 C          66.1040   94.3544   10.6136 C.3     1  UNL1        0.1079
     22 C          67.0591   94.2442    9.4622 C.3     1  UNL1        0.0415
     23 C          67.8572   95.4394    9.0328 C.3     1  UNL1        0.0706
     24 N          67.7001   96.7449    9.7547 N.3     1  UNL1       -0.2974
     25 C          66.7449   96.8550   10.9060 C.3     1  UNL1        0.0706
     26 C          65.9469   95.6598   11.3355 C.3     1  UNL1        0.0415
     27 H          67.4050   97.4315    9.0605 H       1  UNL1        0.1232
     28 N          62.6562   85.5852   13.0689 N.am    1  UNL1       -0.3039
     29 C          62.6794   85.5139   11.5707 C.2     1  UNL1        0.2488
     30 O          63.6428   84.5961   10.8784 O.2     1  UNL1       -0.2700
     31 H          62.0239   86.1876   13.5233 H       1  UNL1        0.1496
     32 C          64.4119   85.9547   14.2007 C.3     1  UNL1        0.0196
     33 C          63.5965   84.7386   13.8747 C.3     1  UNL1        0.0572
     34 C          62.7810   83.5226   13.5486 C.3     1  UNL1        0.0196
     35 C          64.5367   83.8921   14.6804 C.3     1  UNL1        0.0196
@<TRIPOS>BOND
     1    32    33    1
     2    33    34    1
     3    33    35    1
     4    33    28    1
     5    28    29   am
     6    29    30    2
     7    29     1    1
     8     1     2   ar
     9     2     3   ar
    10     3     4   ar
    11     4     5   ar
    12     5     6   ar
    13     6     7   ar
    14     7    11    1
    15    11    12   ar
    16    12    13   ar
    17    13    21    1
    18    21    22    1
    19    22    23    1
    20    23    24    1
    21    24    25    1
    22    25    26    1
    23    13    14   ar
    24    14    15   ar
    25    15    16   ar
    26    16    17    1
    27    16    18   ar
    28    18    19   ar
    29    19    20   ar
    30     7     8   ar
    31     8     9   ar
    32     9     1   ar
    33     9     4    1
    34    20    11   ar
    35    26    21    1
    36    20    14   ar
    37    28    31    1
    38     5    10    1
    39    24    27    1
