@<TRIPOS>MOLECULE
*****
 36 40 0 0 0
SMALL
GASTEIGER

@<TRIPOS>ATOM
      1 C          60.6688   87.7378    9.3491 C.ar    1  UNL1        0.0502
      2 C          59.8005   87.2993    8.2073 C.ar    1  UNL1        0.0143
      3 C          59.5963   88.2053    7.0295 C.ar    1  UNL1       -0.0030
      4 C          60.2603   89.5498    6.9934 C.ar    1  UNL1       -0.0223
      5 C          61.1286   89.9883    8.1353 C.ar    1  UNL1       -0.0034
      6 C          61.3328   89.0823    9.3131 C.ar    1  UNL1        0.0089
      7 C          60.0560   90.4559    5.8155 C.3     1  UNL1        0.0257
      8 C          58.6851   90.9745    5.4971 C.3     1  UNL1        0.0259
      9 C          58.4808   91.8806    4.3192 C.3     1  UNL1        0.0925
     10 N          59.6475   92.2680    3.4597 N.pl3   1  UNL1       -0.2932
     11 C          61.0186   91.7493    3.7782 C.3     1  UNL1        0.0925
     12 C          61.2228   90.8433    4.9561 C.3     1  UNL1        0.0259
     13 C          59.4433   93.1740    2.2819 C.ar    1  UNL1        0.1317
     14 C          58.7722   92.6557    1.0446 C.ar    1  UNL1        0.0343
     15 C          58.5680   93.5617   -0.1334 C.ar    1  UNL1        0.0045
     16 C          59.0349   94.9860   -0.0739 C.ar    1  UNL1        0.0208
     17 C          59.7060   95.5042    1.1635 C.ar    1  UNL1        0.1003
     18 N          59.9102   94.5982    2.3413 N.ar    1  UNL1       -0.2292
     19 C          62.2011   89.5208   10.4550 C.2     1  UNL1       -0.0253
     20 C          62.4411   88.5972   11.6123 C.2     1  UNL1       -0.0303
     21 C          63.3093   89.0356   12.7542 C.3     1  UNL1        0.0257
     22 C          63.9377   90.3976   12.7387 C.3     1  UNL1        0.0050
     23 C          63.6977   91.3212   11.5814 C.3     1  UNL1        0.0050
     24 C          62.8294   90.8827   10.4395 C.3     1  UNL1        0.0261
     25 C          61.9819   85.8216   10.5128 C.2     1  UNL1        0.2837
     26 O          62.8865   85.7176    9.3207 O.2     1  UNL1       -0.2665
     27 N          60.8731   86.8317   10.5270 N.am    1  UNL1       -0.2779
     28 H          60.2794   86.9000   11.3094 H       1  UNL1        0.1553
     29 C          62.5382   82.9308   13.0424 C.ar    1  UNL1        0.1469
     30 C          62.4630   84.1119   13.9640 C.ar    1  UNL1        0.1282
     31 N          62.2455   85.3386   13.1286 N.ar    1  UNL1       -0.2205
     32 C          62.1862   84.9156   11.6907 C.ar    1  UNL1        0.1958
     33 N          62.3671   83.4275   11.6374 N.ar    1  UNL1       -0.3257
     34 H          62.3726   82.8740   10.8232 H       1  UNL1        0.1682
     35 N          62.9572   80.0762   13.8647 N.1     1  UNL1       -0.1893
     36 C          62.7477   81.5035   13.4535 C.1     1  UNL1        0.1194
@<TRIPOS>BOND
     1    35    36    3
     2    36    29    1
     3    29    30   ar
     4    30    31   ar
     5    31    32   ar
     6    32    25    1
     7    25    26    2
     8    25    27   am
     9    27     1    1
    10     1     2   ar
    11     2     3   ar
    12     3     4   ar
    13     4     7    1
    14     7     8    1
    15     8     9    1
    16     9    10    1
    17    10    13    1
    18    13    14   ar
    19    14    15   ar
    20    15    16   ar
    21    16    17   ar
    22    17    18   ar
    23    10    11    1
    24    11    12    1
    25     4     5   ar
    26     5     6   ar
    27     6    19    1
    28    19    20    2
    29    20    21    1
    30    21    22    1
    31    22    23    1
    32    23    24    1
    33    32    33   ar
    34    33    29   ar
    35     6     1   ar
    36    24    19    1
    37    12     7    1
    38    18    13   ar
    39    27    28    1
    40    33    34    1
@<TRIPOS>MOLECULE
*****
 36 40 0 0 0
SMALL
GASTEIGER

@<TRIPOS>ATOM
      1 C          58.6841   96.5718   -2.3193 C.ar    1  UNL1        0.0502
      2 C          57.5053   96.8505   -1.4347 C.ar    1  UNL1        0.0143
      3 C          56.1157   96.7923   -1.9964 C.ar    1  UNL1       -0.0030
      4 C          55.9049   96.4556   -3.4428 C.ar    1  UNL1       -0.0223
      5 C          57.0837   96.1769   -4.3275 C.ar    1  UNL1       -0.0034
      6 C          58.4733   96.2350   -3.7658 C.ar    1  UNL1        0.0089
      7 C          54.5152   96.3975   -4.0046 C.3     1  UNL1        0.0257
      8 C          53.3324   96.5767   -3.0997 C.3     1  UNL1        0.0259
      9 C          51.9427   96.5186   -3.6615 C.3     1  UNL1        0.0925
     10 N          51.7360   96.2813   -5.1281 N.pl3   1  UNL1       -0.2932
     11 C          52.9189   96.1021   -6.0330 C.3     1  UNL1        0.0925
     12 C          54.3085   96.1602   -5.4712 C.3     1  UNL1        0.0259
     13 C          50.3464   96.2232   -5.6898 C.ar    1  UNL1        0.1317
     14 C          50.0945   95.5337   -6.9979 C.ar    1  UNL1        0.0343
     15 C          48.7048   95.4756   -7.5598 C.ar    1  UNL1        0.0045
     16 C          47.5671   96.1070   -6.8134 C.ar    1  UNL1        0.0208
     17 C          47.8191   96.7964   -5.5053 C.ar    1  UNL1        0.1003
     18 N          49.2087   96.8545   -4.9435 N.ar    1  UNL1       -0.2292
     19 C          59.6522   95.9564   -4.6505 C.2     1  UNL1       -0.0253
     20 C          59.9447   96.8549   -5.8154 C.2     1  UNL1       -0.0303
     21 C          61.1236   96.5763   -6.7000 C.3     1  UNL1        0.0257
     22 C          62.0100   95.3991   -6.4198 C.3     1  UNL1        0.0050
     23 C          61.7175   94.5005   -5.2549 C.3     1  UNL1        0.0050
     24 C          60.5386   94.7792   -4.3702 C.3     1  UNL1        0.0261
     25 C          60.5800   95.5144   -0.8920 C.2     1  UNL1        0.2837
     26 O          59.6966   94.3408   -0.5881 O.2     1  UNL1       -0.2665
     27 N          60.0738   96.6299   -1.7576 N.am    1  UNL1       -0.2779
     28 H          60.6536   97.4001   -1.9571 H       1  UNL1        0.1553
     29 C          64.3489   95.9901   -0.0957 C.ar    1  UNL1        0.1469
     30 C          63.8672   95.3334    1.1641 C.ar    1  UNL1        0.1282
     31 N          62.3967   95.0753    1.0191 N.ar    1  UNL1       -0.2205
     32 C          61.9696   95.5724   -0.3302 C.ar    1  UNL1        0.1958
     33 N          63.1762   96.1378   -1.0191 N.ar    1  UNL1       -0.3257
     34 H          63.1951   96.5359   -1.9193 H       1  UNL1        0.1682
     35 N          67.1638   96.8560   -0.6676 N.1     1  UNL1       -0.1893
     36 C          65.7564   96.4230   -0.3816 C.1     1  UNL1        0.1194
@<TRIPOS>BOND
     1    35    36    3
     2    36    29    1
     3    29    30   ar
     4    30    31   ar
     5    31    32   ar
     6    32    25    1
     7    25    26    2
     8    25    27   am
     9    27     1    1
    10     1     2   ar
    11     2     3   ar
    12     3     4   ar
    13     4     7    1
    14     7     8    1
    15     8     9    1
    16     9    10    1
    17    10    13    1
    18    13    14   ar
    19    14    15   ar
    20    15    16   ar
    21    16    17   ar
    22    17    18   ar
    23    10    11    1
    24    11    12    1
    25     4     5   ar
    26     5     6   ar
    27     6    19    1
    28    19    20    2
    29    20    21    1
    30    21    22    1
    31    22    23    1
    32    23    24    1
    33    32    33   ar
    34    33    29   ar
    35     6     1   ar
    36    24    19    1
    37    12     7    1
    38    18    13   ar
    39    27    28    1
    40    33    34    1
@<TRIPOS>MOLECULE
*****
 36 40 0 0 0
SMALL
GASTEIGER

@<TRIPOS>ATOM
      1 C          59.3139   96.2766   -1.9160 C.ar    1  UNL1        0.0502
      2 C          58.1811   96.8370   -1.1081 C.ar    1  UNL1        0.0143
      3 C          56.7914   96.8484   -1.6724 C.ar    1  UNL1       -0.0030
      4 C          56.5345   96.2996   -3.0446 C.ar    1  UNL1       -0.0223
      5 C          57.6674   95.7392   -3.8524 C.ar    1  UNL1       -0.0034
      6 C          59.0571   95.7278   -3.2881 C.ar    1  UNL1        0.0089
      7 C          55.1447   96.3111   -3.6089 C.3     1  UNL1        0.0257
      8 C          53.9615   96.2349   -2.6901 C.3     1  UNL1        0.0259
      9 C          52.5717   96.2464   -3.2544 C.3     1  UNL1        0.0925
     10 N          52.3652   96.3341   -4.7375 N.pl3   1  UNL1       -0.2932
     11 C          53.5484   96.4103   -5.6563 C.3     1  UNL1        0.0925
     12 C          54.9382   96.3988   -5.0920 C.3     1  UNL1        0.0259
     13 C          50.9754   96.3456   -5.3018 C.ar    1  UNL1        0.1317
     14 C          49.8303   96.8340   -4.4652 C.ar    1  UNL1        0.0343
     15 C          48.4405   96.8455   -5.0295 C.ar    1  UNL1        0.0045
     16 C          48.1959   96.3686   -6.4305 C.ar    1  UNL1        0.0208
     17 C          49.3412   95.8802   -7.2671 C.ar    1  UNL1        0.1003
     18 N          50.7309   95.8687   -6.7028 N.ar    1  UNL1       -0.2292
     19 C          60.1900   95.1674   -4.0959 C.2     1  UNL1       -0.0253
     20 C          61.4026   94.6166   -3.4058 C.2     1  UNL1       -0.0303
     21 C          62.5356   94.0563   -4.2136 C.3     1  UNL1        0.0257
     22 C          62.4559   94.0467   -5.7115 C.3     1  UNL1        0.0050
     23 C          61.2432   94.5974   -6.4016 C.3     1  UNL1        0.0050
     24 C          60.1103   95.1578   -5.5937 C.3     1  UNL1        0.0261
     25 C          60.9955   95.5048   -0.0920 C.2     1  UNL1        0.2837
     26 O          59.8974   94.7559    0.6034 O.2     1  UNL1       -0.2665
     27 N          60.7038   96.2651   -1.3516 N.am    1  UNL1       -0.2779
     28 H          61.4244   96.7566   -1.8080 H       1  UNL1        0.1553
     29 C          64.2915   95.8897    1.9213 C.ar    1  UNL1        0.1469
     30 C          64.7561   95.0613    0.7602 C.ar    1  UNL1        0.1282
     31 N          63.5779   94.8163   -0.1352 N.ar    1  UNL1       -0.2205
     32 C          62.3852   95.4933    0.4723 C.ar    1  UNL1        0.1958
     33 N          62.8262   96.1567    1.7433 N.ar    1  UNL1       -0.3257
     34 H          62.2543   96.6761    2.3536 H       1  UNL1        0.1682
     35 N          65.9940   96.8449    4.1993 N.1     1  UNL1       -0.1893
     36 C          65.1427   96.3673    3.0603 C.1     1  UNL1        0.1194
@<TRIPOS>BOND
     1    35    36    3
     2    36    29    1
     3    29    30   ar
     4    30    31   ar
     5    31    32   ar
     6    32    25    1
     7    25    26    2
     8    25    27   am
     9    27     1    1
    10     1     2   ar
    11     2     3   ar
    12     3     4   ar
    13     4     7    1
    14     7     8    1
    15     8     9    1
    16     9    10    1
    17    10    13    1
    18    13    14   ar
    19    14    15   ar
    20    15    16   ar
    21    16    17   ar
    22    17    18   ar
    23    10    11    1
    24    11    12    1
    25     4     5   ar
    26     5     6   ar
    27     6    19    1
    28    19    20    2
    29    20    21    1
    30    21    22    1
    31    22    23    1
    32    23    24    1
    33    32    33   ar
    34    33    29   ar
    35     6     1   ar
    36    24    19    1
    37    12     7    1
    38    18    13   ar
    39    27    28    1
    40    33    34    1
