@<TRIPOS>MOLECULE
*****
 23 26 0 0 0
SMALL
GASTEIGER

@<TRIPOS>ATOM
      1 C          62.3201   89.3880   12.1485 C.2     1  UNL1        0.3394
      2 O          60.8681   89.7008   12.3578 O.2     1  UNL1       -0.2452
      3 C          63.5991   91.5542   10.1555 C.3     1  UNL1        0.0294
      4 C          64.4636   91.8814   11.3369 C.2     1  UNL1       -0.0069
      5 C          65.5014   92.9593   11.2312 C.2     1  UNL1        0.1329
      6 F          65.6746   93.7101    9.9441 F       1  UNL1       -0.2048
      7 C          66.3658   93.2865   12.4125 C.2     1  UNL1        0.0302
      8 C          66.1926   92.5358   13.6996 C.2     1  UNL1        0.0176
      9 C          65.1549   91.4579   13.8052 C.2     1  UNL1        0.0669
     10 N          64.7572   90.5549   14.9350 N.2     1  UNL1       -0.2476
     11 C          63.6468   89.6696   14.4519 C.2     1  UNL1        0.1013
     12 C          63.3583   90.0255   13.0235 C.2     1  UNL1        0.0815
     13 C          64.2904   91.1307   12.6239 C.3     1  UNL1        0.0907
     14 O          62.7338   88.4377   11.0642 O.3     1  UNL1       -0.4456
     15 C          62.0925   87.0852   10.9674 C.3     1  UNL1        0.2087
     16 C          61.4430   86.6530    9.6862 C.3     1  UNL1        0.0445
     17 C          62.1990   85.7968    8.7138 C.3     1  UNL1        0.0210
     18 C          61.5495   85.3646    7.4326 C.3     1  UNL1        0.0722
     19 N          60.1442   85.7886    7.1238 N.3     1  UNL1       -0.2727
     20 C          59.3883   86.6448    8.0963 C.3     1  UNL1        0.0722
     21 C          60.0377   87.0770    9.3775 C.3     1  UNL1        0.0210
     22 C          60.4580   86.0503    7.8387 C.3     1  UNL1        0.0722
     23 C          61.0453   86.4411    8.9972 C.3     1  UNL1        0.0210
@<TRIPOS>BOND
     1     3     4    1
     2     4     5    2
     3     5     6    1
     4     5     7    1
     5     7     8    2
     6     8     9    1
     7     9    10    2
     8    10    11    1
     9    11    12    2
    10    12     1    1
    11     1     2    2
    12     1    14    1
    13    14    15    1
    14    15    16    1
    15    16    17    1
    16    17    18    1
    17    18    19    1
    18    19    20    1
    19    20    21    1
    20    19    22    1
    21    22    23    1
    22    12    13    1
    23    13     4    1
    24    13     9    1
    25    21    16    1
    26    23    16    1
@<TRIPOS>MOLECULE
*****
 23 26 0 0 0
SMALL
GASTEIGER

@<TRIPOS>ATOM
      1 C          62.7800   85.7969   12.9948 C.2     1  UNL1        0.3394
      2 O          63.8988   86.7410   13.3219 O.2     1  UNL1       -0.2452
      3 C          63.1107   83.7105   10.5787 C.3     1  UNL1        0.0294
      4 C          62.9519   82.6873   11.6640 C.2     1  UNL1       -0.0069
      5 C          62.9917   81.2258   11.3285 C.2     1  UNL1        0.1329
      6 F          63.1903   80.7876    9.9077 F       1  UNL1       -0.2048
      7 C          62.8329   80.2027   12.4137 C.2     1  UNL1        0.0302
      8 C          62.6343   80.6409   13.8345 C.2     1  UNL1        0.0176
      9 C          62.5945   82.1023   14.1700 C.2     1  UNL1        0.0669
     10 N          62.4146   82.8292   15.4697 N.2     1  UNL1       -0.2476
     11 C          62.4622   84.3017   15.1876 C.2     1  UNL1        0.1013
     12 C          62.6715   84.4849   13.7136 C.2     1  UNL1        0.0815
     13 C          62.7533   83.1255   13.0847 C.3     1  UNL1        0.0907
     14 O          61.7696   86.1650   11.9490 O.3     1  UNL1       -0.4456
     15 C          62.1387   87.1201   10.8530 C.3     1  UNL1        0.2087
     16 C          61.1877   87.3643    9.7190 C.3     1  UNL1        0.0445
     17 C          60.7975   88.7666    9.3562 C.3     1  UNL1        0.0210
     18 C          59.8464   89.0108    8.2223 C.3     1  UNL1        0.0722
     19 N          59.2855   87.8528    7.4511 N.3     1  UNL1       -0.2727
     20 C          59.6757   86.4507    7.8140 C.3     1  UNL1        0.0722
     21 C          60.6267   86.2064    8.9479 C.3     1  UNL1        0.0210
     22 C          59.8033   87.6693    8.0645 C.3     1  UNL1        0.0722
     23 C          60.6633   87.4485    9.0898 C.3     1  UNL1        0.0210
@<TRIPOS>BOND
     1     3     4    1
     2     4     5    2
     3     5     6    1
     4     5     7    1
     5     7     8    2
     6     8     9    1
     7     9    10    2
     8    10    11    1
     9    11    12    2
    10    12     1    1
    11     1     2    2
    12     1    14    1
    13    14    15    1
    14    15    16    1
    15    16    17    1
    16    17    18    1
    17    18    19    1
    18    19    20    1
    19    20    21    1
    20    19    22    1
    21    22    23    1
    22    12    13    1
    23    13     4    1
    24    13     9    1
    25    21    16    1
    26    23    16    1
@<TRIPOS>MOLECULE
*****
 23 26 0 0 0
SMALL
GASTEIGER

@<TRIPOS>ATOM
      1 C          63.9851   90.8760   13.5031 C.2     1  UNL1        0.3394
      2 O          63.6617   91.5354   14.8109 O.2     1  UNL1       -0.2452
      3 C          62.3416   90.7697   10.7484 C.3     1  UNL1        0.0294
      4 C          62.3709   89.2886   10.9841 C.2     1  UNL1       -0.0069
      5 C          61.7190   88.3600   10.0029 C.2     1  UNL1        0.1329
      6 F          61.0378   88.9126    8.7861 F       1  UNL1       -0.2048
      7 C          61.7484   86.8790   10.2386 C.2     1  UNL1        0.0302
      8 C          62.4296   86.3264   11.4554 C.2     1  UNL1        0.0176
      9 C          63.0815   87.2551   12.4366 C.2     1  UNL1        0.0669
     10 N          63.8226   87.0039   13.7163 N.2     1  UNL1       -0.2476
     11 C          64.2513   88.3297   14.2715 C.2     1  UNL1        0.1013
     12 C          63.7751   89.4003   13.3350 C.2     1  UNL1        0.0815
     13 C          63.0522   88.7361   12.2009 C.3     1  UNL1        0.0907
     14 O          64.5185   91.6923   12.3632 O.3     1  UNL1       -0.4456
     15 C          65.8569   92.3593   12.4803 C.3     1  UNL1        0.2087
     16 C          66.5555   92.8599   11.2510 C.3     1  UNL1        0.0445
     17 C          66.1519   94.1690   10.6397 C.3     1  UNL1        0.0210
     18 C          66.8505   94.6697    9.4104 C.3     1  UNL1        0.0722
     19 N          67.9527   93.8614    8.7923 N.3     1  UNL1       -0.2727
     20 C          68.3562   92.5524    9.4035 C.3     1  UNL1        0.0722
     21 C          67.6577   92.0517   10.6329 C.3     1  UNL1        0.0210
     22 C          67.5992   93.5459    9.4657 C.3     1  UNL1        0.0722
     23 C          66.9675   93.0932   10.5773 C.3     1  UNL1        0.0210
@<TRIPOS>BOND
     1     3     4    1
     2     4     5    2
     3     5     6    1
     4     5     7    1
     5     7     8    2
     6     8     9    1
     7     9    10    2
     8    10    11    1
     9    11    12    2
    10    12     1    1
    11     1     2    2
    12     1    14    1
    13    14    15    1
    14    15    16    1
    15    16    17    1
    16    17    18    1
    17    18    19    1
    18    19    20    1
    19    20    21    1
    20    19    22    1
    21    22    23    1
    22    12    13    1
    23    13     4    1
    24    13     9    1
    25    21    16    1
    26    23    16    1
@<TRIPOS>MOLECULE
*****
 23 26 0 0 0
SMALL
GASTEIGER

@<TRIPOS>ATOM
      1 C          62.6329   89.3572   12.1625 C.2     1  UNL1        0.3394
      2 O          61.2410   89.5368   12.6919 O.2     1  UNL1       -0.2452
      3 C          64.3853   89.9847   14.7771 C.3     1  UNL1        0.0294
      4 C          64.9300   91.1019   13.9374 C.2     1  UNL1       -0.0069
      5 C          65.9694   92.0253   14.5004 C.2     1  UNL1        0.1329
      6 F          66.4640   91.8314   15.9032 F       1  UNL1       -0.2048
      7 C          66.5140   93.1425   13.6607 C.2     1  UNL1        0.0302
      8 C          66.0194   93.3363   12.2579 C.2     1  UNL1        0.0176
      9 C          64.9800   92.4129   11.6949 C.2     1  UNL1        0.0669
     10 N          64.3060   92.3576   10.3560 N.2     1  UNL1       -0.2476
     11 C          63.3448   91.2062   10.3682 C.2     1  UNL1        0.1013
     12 C          63.4247   90.5499   11.7147 C.2     1  UNL1        0.0815
     13 C          64.4353   91.2957   12.5346 C.3     1  UNL1        0.0907
     14 O          63.2331   87.9849   12.0810 O.3     1  UNL1       -0.4456
     15 C          62.3568   86.7980   11.8102 C.3     1  UNL1        0.2087
     16 C          61.7858   86.5845   10.4397 C.3     1  UNL1        0.0445
     17 C          60.4605   87.1866   10.0773 C.3     1  UNL1        0.0210
     18 C          59.8893   86.9731    8.7068 C.3     1  UNL1        0.0722
     19 N          60.6434   86.1575    7.6987 N.3     1  UNL1       -0.2727
     20 C          61.9686   85.5555    8.0611 C.3     1  UNL1        0.0722
     21 C          62.5398   85.7690    9.4315 C.3     1  UNL1        0.0210
     22 C          60.9968   86.2470    8.4371 C.3     1  UNL1        0.0722
     23 C          61.5131   86.4400    9.6763 C.3     1  UNL1        0.0210
@<TRIPOS>BOND
     1     3     4    1
     2     4     5    2
     3     5     6    1
     4     5     7    1
     5     7     8    2
     6     8     9    1
     7     9    10    2
     8    10    11    1
     9    11    12    2
    10    12     1    1
    11     1     2    2
    12     1    14    1
    13    14    15    1
    14    15    16    1
    15    16    17    1
    16    17    18    1
    17    18    19    1
    18    19    20    1
    19    20    21    1
    20    19    22    1
    21    22    23    1
    22    12    13    1
    23    13     4    1
    24    13     9    1
    25    21    16    1
    26    23    16    1
@<TRIPOS>MOLECULE
*****
 23 26 0 0 0
SMALL
GASTEIGER

@<TRIPOS>ATOM
      1 C          62.8235   84.5534   14.9740 C.2     1  UNL1        0.3394
      2 O          61.3644   84.7980   15.2216 O.2     1  UNL1       -0.2452
      3 C          62.4976   86.1356   12.2008 C.3     1  UNL1        0.0294
      4 C          62.9800   84.8470   11.6035 C.2     1  UNL1       -0.0069
      5 C          63.1356   84.7212   10.1170 C.2     1  UNL1        0.1329
      6 F          62.8088   85.8841    9.2276 F       1  UNL1       -0.2048
      7 C          63.6180   83.4326    9.5198 C.2     1  UNL1        0.0302
      8 C          63.9448   82.2697   10.4091 C.2     1  UNL1        0.0176
      9 C          63.7892   82.3955   11.8957 C.2     1  UNL1        0.0669
     10 N          64.0323   81.4278   13.0157 N.2     1  UNL1       -0.2476
     11 C          63.7001   82.1184   14.3052 C.2     1  UNL1        0.1013
     12 C          63.2517   83.5129   13.9821 C.2     1  UNL1        0.0815
     13 C          63.3068   83.6841   12.4929 C.3     1  UNL1        0.0907
     14 O          63.8543   85.3493   15.7183 O.3     1  UNL1       -0.4456
     15 C          64.6142   86.4352   15.0160 C.3     1  UNL1        0.2087
     16 C          64.1666   87.8619   15.1358 C.3     1  UNL1        0.0445
     17 C          63.5462   88.3486   16.4119 C.3     1  UNL1        0.0210
     18 C          63.0987   89.7752   16.5318 C.3     1  UNL1        0.0722
     19 N          63.2715   90.7152   15.3755 N.3     1  UNL1       -0.2727
     20 C          63.8918   90.2284   14.0995 C.3     1  UNL1        0.0722
     21 C          64.3394   88.8018   13.9797 C.3     1  UNL1        0.0210
     22 C          63.5321   89.9423   15.2626 C.3     1  UNL1        0.0722
     23 C          63.9368   88.6523   15.1543 C.3     1  UNL1        0.0210
@<TRIPOS>BOND
     1     3     4    1
     2     4     5    2
     3     5     6    1
     4     5     7    1
     5     7     8    2
     6     8     9    1
     7     9    10    2
     8    10    11    1
     9    11    12    2
    10    12     1    1
    11     1     2    2
    12     1    14    1
    13    14    15    1
    14    15    16    1
    15    16    17    1
    16    17    18    1
    17    18    19    1
    18    19    20    1
    19    20    21    1
    20    19    22    1
    21    22    23    1
    22    12    13    1
    23    13     4    1
    24    13     9    1
    25    21    16    1
    26    23    16    1
@<TRIPOS>MOLECULE
*****
 23 26 0 0 0
SMALL
GASTEIGER

@<TRIPOS>ATOM
      1 C          63.6925   90.1706   15.5326 C.2     1  UNL1        0.3394
      2 O          63.0643   90.7665   16.7574 O.2     1  UNL1       -0.2452
      3 C          62.2850   90.0044   12.6531 C.3     1  UNL1        0.0294
      4 C          63.4397   90.8617   12.2267 C.2     1  UNL1       -0.0069
      5 C          63.5565   91.3064   10.7989 C.2     1  UNL1        0.1329
      6 F          62.5186   90.8939    9.7975 F       1  UNL1       -0.2048
      7 C          64.7112   92.1636   10.3725 C.2     1  UNL1        0.0302
      8 C          65.7491   92.5762   11.3739 C.2     1  UNL1        0.0176
      9 C          65.6322   92.1314   12.8016 C.2     1  UNL1        0.0669
     10 N          66.4947   92.3787   14.0037 N.2     1  UNL1       -0.2476
     11 C          65.8731   91.6742   15.1730 C.2     1  UNL1        0.1013
     12 C          64.6264   90.9916   14.6936 C.2     1  UNL1        0.0815
     13 C          64.4775   91.2742   13.2280 C.3     1  UNL1        0.0907
     14 O          63.3870   88.7536   15.1468 O.3     1  UNL1       -0.4456
     15 C          64.4815   87.8614   14.6410 C.3     1  UNL1        0.2087
     16 C          64.1831   86.4343   14.2883 C.3     1  UNL1        0.0445
     17 C          64.6467   85.3268   15.1876 C.3     1  UNL1        0.0210
     18 C          64.3483   83.8997   14.8350 C.3     1  UNL1        0.0722
     19 N          63.5863   83.5801   13.5831 N.3     1  UNL1       -0.2727
     20 C          63.1228   84.6875   12.6838 C.3     1  UNL1        0.0722
     21 C          63.4211   86.1146   13.0364 C.3     1  UNL1        0.0210
     22 C          63.7260   84.3773   13.7345 C.3     1  UNL1        0.0722
     23 C          63.9958   85.6677   14.0534 C.3     1  UNL1        0.0210
@<TRIPOS>BOND
     1     3     4    1
     2     4     5    2
     3     5     6    1
     4     5     7    1
     5     7     8    2
     6     8     9    1
     7     9    10    2
     8    10    11    1
     9    11    12    2
    10    12     1    1
    11     1     2    2
    12     1    14    1
    13    14    15    1
    14    15    16    1
    15    16    17    1
    16    17    18    1
    17    18    19    1
    18    19    20    1
    19    20    21    1
    20    19    22    1
    21    22    23    1
    22    12    13    1
    23    13     4    1
    24    13     9    1
    25    21    16    1
    26    23    16    1
@<TRIPOS>MOLECULE
*****
 23 26 0 0 0
SMALL
GASTEIGER

@<TRIPOS>ATOM
      1 C          64.1010   91.1433   13.2364 C.2     1  UNL1        0.3394
      2 O          63.4542   91.4187   14.5614 O.2     1  UNL1       -0.2452
      3 C          64.3805   88.1612   14.3896 C.3     1  UNL1        0.0294
      4 C          63.5974   87.7949   13.1638 C.2     1  UNL1       -0.0069
      5 C          63.2431   86.3612   12.9008 C.2     1  UNL1        0.1329
      6 F          63.6720   85.2940   13.8637 F       1  UNL1       -0.2048
      7 C          62.4600   85.9949   11.6751 C.2     1  UNL1        0.0302
      8 C          62.0311   87.0622   10.7123 C.2     1  UNL1        0.0176
      9 C          62.3854   88.4958   10.9753 C.2     1  UNL1        0.0669
     10 N          62.1024   89.7558   10.2122 N.2     1  UNL1       -0.2476
     11 C          62.7106   90.9009   10.9664 C.2     1  UNL1        0.1013
     12 C          63.3695   90.3486   12.1955 C.2     1  UNL1        0.0815
     13 C          63.1685   88.8622   12.2010 C.3     1  UNL1        0.0907
     14 O          65.4793   91.6625   12.9522 O.3     1  UNL1       -0.4456
     15 C          65.6586   93.0283   12.3587 C.3     1  UNL1        0.2087
     16 C          66.4907   93.2060   11.1234 C.3     1  UNL1        0.0445
     17 C          66.3022   94.4181   10.2601 C.3     1  UNL1        0.0210
     18 C          67.1343   94.5959    9.0247 C.3     1  UNL1        0.0722
     19 N          68.1549   93.5615    8.6527 N.3     1  UNL1       -0.2727
     20 C          68.3434   92.3494    9.5159 C.3     1  UNL1        0.0722
     21 C          67.5113   92.1716   10.7513 C.3     1  UNL1        0.0210
     22 C          67.7225   93.4204    9.3391 C.3     1  UNL1        0.0722
     23 C          66.9701   93.2598   10.4561 C.3     1  UNL1        0.0210
@<TRIPOS>BOND
     1     3     4    1
     2     4     5    2
     3     5     6    1
     4     5     7    1
     5     7     8    2
     6     8     9    1
     7     9    10    2
     8    10    11    1
     9    11    12    2
    10    12     1    1
    11     1     2    2
    12     1    14    1
    13    14    15    1
    14    15    16    1
    15    16    17    1
    16    17    18    1
    17    18    19    1
    18    19    20    1
    19    20    21    1
    20    19    22    1
    21    22    23    1
    22    12    13    1
    23    13     4    1
    24    13     9    1
    25    21    16    1
    26    23    16    1
@<TRIPOS>MOLECULE
*****
 23 26 0 0 0
SMALL
GASTEIGER

@<TRIPOS>ATOM
      1 C          61.9493   87.2612   11.3240 C.2     1  UNL1        0.3394
      2 O          60.4731   87.5012   11.4384 O.2     1  UNL1       -0.2452
      3 C          62.9281   85.1877   13.5697 C.3     1  UNL1        0.0294
      4 C          63.3040   84.3448   12.3872 C.2     1  UNL1       -0.0069
      5 C          63.9273   82.9964   12.5951 C.2     1  UNL1        0.1329
      6 F          64.1748   82.4909   13.9855 F       1  UNL1       -0.2048
      7 C          64.3031   82.1535   11.4126 C.2     1  UNL1        0.0302
      8 C          64.0556   82.6590   10.0222 C.2     1  UNL1        0.0176
      9 C          63.4323   84.0074    9.8143 C.2     1  UNL1        0.0669
     10 N          63.0703   84.7649    8.5712 N.2     1  UNL1       -0.2476
     11 C          62.4707   86.0759    8.9855 C.2     1  UNL1        0.1013
     12 C          62.4622   86.1287   10.4846 C.2     1  UNL1        0.0815
     13 C          63.0565   84.8503   10.9968 C.3     1  UNL1        0.0907
     14 O          62.9127   88.1535   12.0490 O.3     1  UNL1       -0.4456
     15 C          62.6178   89.6173   12.1909 C.3     1  UNL1        0.2087
     16 C          63.6771   90.5501   12.6987 C.3     1  UNL1        0.0445
     17 C          64.1445   90.4510   14.1207 C.3     1  UNL1        0.0210
     18 C          65.2038   91.3837   14.6287 C.3     1  UNL1        0.0722
     19 N          65.7956   92.4155   13.7147 N.3     1  UNL1       -0.2727
     20 C          65.3281   92.5146   12.2929 C.3     1  UNL1        0.0722
     21 C          64.2689   91.5819   11.7849 C.3     1  UNL1        0.0210
     22 C          65.2176   91.9264   13.3910 C.3     1  UNL1        0.0722
     23 C          64.2598   91.0830   12.9318 C.3     1  UNL1        0.0210
@<TRIPOS>BOND
     1     3     4    1
     2     4     5    2
     3     5     6    1
     4     5     7    1
     5     7     8    2
     6     8     9    1
     7     9    10    2
     8    10    11    1
     9    11    12    2
    10    12     1    1
    11     1     2    2
    12     1    14    1
    13    14    15    1
    14    15    16    1
    15    16    17    1
    16    17    18    1
    17    18    19    1
    18    19    20    1
    19    20    21    1
    20    19    22    1
    21    22    23    1
    22    12    13    1
    23    13     4    1
    24    13     9    1
    25    21    16    1
    26    23    16    1
@<TRIPOS>MOLECULE
*****
 23 26 0 0 0
SMALL
GASTEIGER

@<TRIPOS>ATOM
      1 C          63.0560   85.5570   12.5144 C.2     1  UNL1        0.3394
      2 O          63.8894   85.9098   13.7106 O.2     1  UNL1       -0.2452
      3 C          61.7874   83.3927   14.5162 C.3     1  UNL1        0.0294
      4 C          62.2324   82.4140   13.4702 C.2     1  UNL1       -0.0069
      5 C          61.9817   80.9474   13.6604 C.2     1  UNL1        0.1329
      6 F          61.2859   80.4596   14.8966 F       1  UNL1       -0.2048
      7 C          62.4266   79.9686   12.6145 C.2     1  UNL1        0.0302
      8 C          63.1224   80.4564   11.3784 C.2     1  UNL1        0.0176
      9 C          63.3731   81.9230   11.1882 C.2     1  UNL1        0.0669
     10 N          64.0304   82.6937   10.0818 N.2     1  UNL1       -0.2476
     11 C          63.9915   84.1488   10.4439 C.2     1  UNL1        0.1013
     12 C          63.3103   84.2774   11.7741 C.2     1  UNL1        0.0815
     13 C          62.9281   82.9018   12.2341 C.3     1  UNL1        0.0907
     14 O          61.9683   86.4838   12.0584 O.3     1  UNL1       -0.4456
     15 C          62.1114   87.2289   10.7645 C.3     1  UNL1        0.2087
     16 C          61.2935   86.8270    9.5731 C.3     1  UNL1        0.0445
     17 C          59.8952   87.3463    9.4137 C.3     1  UNL1        0.0210
     18 C          59.0772   86.9444    8.2223 C.3     1  UNL1        0.0722
     19 N          59.6574   86.0232    7.1903 N.3     1  UNL1       -0.2727
     20 C          61.0556   85.5040    7.3497 C.3     1  UNL1        0.0722
     21 C          61.8736   85.9059    8.5411 C.3     1  UNL1        0.0210
     22 C          60.1441   86.2155    7.8261 C.3     1  UNL1        0.0722
     23 C          60.8837   86.5789    8.9034 C.3     1  UNL1        0.0210
@<TRIPOS>BOND
     1     3     4    1
     2     4     5    2
     3     5     6    1
     4     5     7    1
     5     7     8    2
     6     8     9    1
     7     9    10    2
     8    10    11    1
     9    11    12    2
    10    12     1    1
    11     1     2    2
    12     1    14    1
    13    14    15    1
    14    15    16    1
    15    16    17    1
    16    17    18    1
    17    18    19    1
    18    19    20    1
    19    20    21    1
    20    19    22    1
    21    22    23    1
    22    12    13    1
    23    13     4    1
    24    13     9    1
    25    21    16    1
    26    23    16    1
