@<TRIPOS>MOLECULE
*****
 34 39 0 0 0
SMALL
GASTEIGER

@<TRIPOS>ATOM
      1 C          63.9599   90.5482   13.1181 C.ar    1  UNL1        0.0212
      2 C          63.5251   91.4053   11.9665 C.ar    1  UNL1        0.0328
      3 C          62.8689   90.7794   10.7715 C.ar    1  UNL1        0.1610
      4 F          62.4341   91.6366    9.6199 F       1  UNL1       -0.2025
      5 C          62.6475   89.2965   10.7284 C.ar    1  UNL1        0.1494
      6 N          62.0312   88.4034    9.6927 N.ar    1  UNL1       -0.1262
      7 N          62.0852   86.9944   10.2043 N.ar    1  UNL1       -0.0595
      8 N          62.7348   87.0166   11.5562 N.ar    1  UNL1       -0.2103
      9 C          63.0823   88.4394   11.8801 C.ar    1  UNL1        0.1060
     10 C          63.7385   89.0653   13.0749 C.ar    1  UNL1        0.0224
     11 C          62.9917   85.8253   12.4306 C.ar    1  UNL1        0.0858
     12 C          63.7130   85.9939   13.7349 C.ar    1  UNL1        0.0206
     13 C          63.9700   84.8025   14.6094 C.ar    1  UNL1        0.0195
     14 C          63.5057   83.4426   14.1795 C.ar    1  UNL1        0.0904
     15 N          63.6147   82.0937   14.8266 N.am    1  UNL1       -0.1594
     16 C          62.9608   81.0915   13.9222 C.2     1  UNL1        0.3478
     17 O          62.8411   79.6184   14.1788 O.2     1  UNL1       -0.2484
     18 N          62.4476   81.8209   12.7161 N.am    1  UNL1       -0.1593
     19 C          62.7844   83.2740   12.8750 C.ar    1  UNL1        0.0918
     20 C          62.5274   84.4653   12.0006 C.ar    1  UNL1        0.0372
     21 N          66.0158   91.7103   14.3703 N.ar    1  UNL1       -0.2464
     22 N          66.2526   92.2412   15.7531 N.ar    1  UNL1       -0.1674
     23 C          64.9992   92.0330   16.5504 C.ar    1  UNL1        0.1217
     24 C          63.9878   91.3735   15.6604 C.ar    1  UNL1        0.0412
     25 C          64.6162   91.1741   14.3130 C.ar    1  UNL1        0.0799
     26 C          67.0051   91.7149   13.2427 C.3     1  UNL1        0.1538
     27 C          66.6856   94.7994    9.9818 C.ar    1  UNL1        0.0684
     28 C          66.1850   95.1114   11.3610 C.ar    1  UNL1        0.0100
     29 C          66.2915   94.0833   12.4480 C.ar    1  UNL1       -0.0016
     30 C          66.8986   92.7431   12.1558 C.ar    1  UNL1        0.0021
     31 C          67.3992   92.4311   10.7766 C.ar    1  UNL1       -0.0016
     32 C          67.2927   93.4593    9.6896 C.ar    1  UNL1        0.0100
     33 N          66.4726   96.8559    7.8080 N.1     1  UNL1       -0.1908
     34 C          66.5791   95.8276    8.8949 C.1     1  UNL1        0.1004
@<TRIPOS>BOND
     1    33    34    3
     2    34    27    1
     3    27    28   ar
     4    28    29   ar
     5    29    30   ar
     6    30    26    1
     7    26    21    1
     8    21    22   ar
     9    22    23   ar
    10    23    24   ar
    11    24    25   ar
    12    25     1    1
    13     1     2   ar
    14     2     3   ar
    15     3     4    1
    16     3     5   ar
    17     5     6   ar
    18     6     7   ar
    19     7     8   ar
    20     8    11    1
    21    11    12   ar
    22    12    13   ar
    23    13    14   ar
    24    14    15    2
    25    15    16    1
    26    16    17    2
    27    16    18    1
    28    18    19    2
    29    19    20   ar
    30     8     9   ar
    31     9    10   ar
    32    30    31   ar
    33    31    32   ar
    34    32    27   ar
    35    25    21   ar
    36    10     1   ar
    37     9     5   ar
    38    20    11   ar
    39    19    14   ar
@<TRIPOS>MOLECULE
*****
 34 39 0 0 0
SMALL
GASTEIGER

@<TRIPOS>ATOM
      1 C          63.8569   86.5342   14.9699 C.ar    1  UNL1        0.0212
      2 C          63.3799   86.4230   16.3876 C.ar    1  UNL1        0.0328
      3 C          63.1206   87.6628   17.1913 C.ar    1  UNL1        0.1610
      4 F          62.6436   87.5515   18.6091 F       1  UNL1       -0.2025
      5 C          63.3384   89.0138   16.5770 C.ar    1  UNL1        0.1494
      6 N          63.1683   90.4020   17.1191 N.ar    1  UNL1       -0.1262
      7 N          63.5401   91.3712   16.0364 N.ar    1  UNL1       -0.0595
      8 N          63.9401   90.5820   14.8251 N.ar    1  UNL1       -0.2103
      9 C          63.8155   89.1250   15.1592 C.ar    1  UNL1        0.1060
     10 C          64.0747   87.8852   14.3557 C.ar    1  UNL1        0.0224
     11 C          64.3864   91.1501   13.5105 C.ar    1  UNL1        0.0858
     12 C          63.5694   90.9132   12.2751 C.ar    1  UNL1        0.0206
     13 C          64.0156   91.4812   10.9604 C.ar    1  UNL1        0.0195
     14 C          65.2788   92.2861   10.8812 C.ar    1  UNL1        0.0904
     15 N          65.9651   92.9668    9.7342 N.am    1  UNL1       -0.1594
     16 C          67.2062   93.6244   10.2607 C.2     1  UNL1        0.3478
     17 O          68.1932   94.4170    9.4560 O.2     1  UNL1       -0.2484
     18 N          67.2870   93.3501   11.7333 N.am    1  UNL1       -0.1593
     19 C          66.0959   92.5230   12.1168 C.ar    1  UNL1        0.0918
     20 C          65.6497   91.9550   13.4314 C.ar    1  UNL1        0.0372
     21 N          63.5816   85.0047   12.7951 N.ar    1  UNL1       -0.2464
     22 N          64.0906   83.6579   12.3742 N.ar    1  UNL1       -0.1674
     23 C          64.9396   83.1152   13.4854 C.ar    1  UNL1        0.1217
     24 C          64.9554   84.1266   14.5930 C.ar    1  UNL1        0.0412
     25 C          64.1161   85.2944   14.1663 C.ar    1  UNL1        0.0799
     26 C          62.6940   85.9039   11.9866 C.3     1  UNL1        0.1538
     27 C          61.9470   85.0115    7.6397 C.ar    1  UNL1        0.0684
     28 C          60.9998   85.8938    8.3978 C.ar    1  UNL1        0.0100
     29 C          61.2488   86.1912    9.8468 C.ar    1  UNL1       -0.0016
     30 C          62.4450   85.6064   10.5376 C.ar    1  UNL1        0.0021
     31 C          63.3921   84.7243    9.7795 C.ar    1  UNL1       -0.0016
     32 C          63.1431   84.4268    8.3305 C.ar    1  UNL1        0.0100
     33 N          61.4486   84.4167    4.7418 N.1     1  UNL1       -0.1908
     34 C          61.6979   84.7141    6.1908 C.1     1  UNL1        0.1004
@<TRIPOS>BOND
     1    33    34    3
     2    34    27    1
     3    27    28   ar
     4    28    29   ar
     5    29    30   ar
     6    30    26    1
     7    26    21    1
     8    21    22   ar
     9    22    23   ar
    10    23    24   ar
    11    24    25   ar
    12    25     1    1
    13     1     2   ar
    14     2     3   ar
    15     3     4    1
    16     3     5   ar
    17     5     6   ar
    18     6     7   ar
    19     7     8   ar
    20     8    11    1
    21    11    12   ar
    22    12    13   ar
    23    13    14   ar
    24    14    15    2
    25    15    16    1
    26    16    17    2
    27    16    18    1
    28    18    19    2
    29    19    20   ar
    30     8     9   ar
    31     9    10   ar
    32    30    31   ar
    33    31    32   ar
    34    32    27   ar
    35    25    21   ar
    36    10     1   ar
    37     9     5   ar
    38    20    11   ar
    39    19    14   ar
@<TRIPOS>MOLECULE
*****
 34 39 0 0 0
SMALL
GASTEIGER

@<TRIPOS>ATOM
      1 C          62.2121   85.3620   10.4567 C.ar    1  UNL1        0.0212
      2 C          62.7234   84.0508    9.9379 C.ar    1  UNL1        0.0328
      3 C          63.6196   83.2041   10.7924 C.ar    1  UNL1        0.1610
      4 F          64.1309   81.8928   10.2736 F       1  UNL1       -0.2025
      5 C          64.0044   83.6688   12.1657 C.ar    1  UNL1        0.1494
      6 N          64.8657   83.0538   13.2287 N.ar    1  UNL1       -0.1262
      7 N          64.8867   83.9851   14.4044 N.ar    1  UNL1       -0.0595
      8 N          64.0384   85.1755   14.0681 N.ar    1  UNL1       -0.2103
      9 C          63.4930   84.9801   12.6845 C.ar    1  UNL1        0.1060
     10 C          62.5969   85.8266   11.8300 C.ar    1  UNL1        0.0224
     11 C          63.7806   86.3544   14.9590 C.ar    1  UNL1        0.0858
     12 C          63.0931   86.1615   16.2781 C.ar    1  UNL1        0.0206
     13 C          62.8353   87.3404   17.1691 C.ar    1  UNL1        0.0195
     14 C          63.2650   88.7122   16.7409 C.ar    1  UNL1        0.0904
     15 N          63.1470   90.0532   17.4026 N.am    1  UNL1       -0.1594
     16 C          63.7616   91.0749   16.4925 C.2     1  UNL1        0.3478
     17 O          63.8608   92.5476   16.7596 O.2     1  UNL1       -0.2484
     18 N          64.2594   90.3654   15.2682 N.am    1  UNL1       -0.1593
     19 C          63.9526   88.9051   15.4217 C.ar    1  UNL1        0.0918
     20 C          64.2103   87.7263   14.5308 C.ar    1  UNL1        0.0372
     21 N          60.8389   87.5932    9.9266 N.ar    1  UNL1       -0.2464
     22 N          59.9676   88.0596    8.7981 N.ar    1  UNL1       -0.1674
     23 C          59.9063   86.9632    7.7762 C.ar    1  UNL1        0.1217
     24 C          60.7396   85.8193    8.2731 C.ar    1  UNL1        0.0412
     25 C          61.3160   86.2086    9.6021 C.ar    1  UNL1        0.0799
     26 C          61.1741   88.3743   11.1625 C.3     1  UNL1        0.1538
     27 C          64.1222   91.7674   10.9491 C.ar    1  UNL1        0.0684
     28 C          63.2640   91.4438    9.7622 C.ar    1  UNL1        0.0100
     29 C          62.2812   90.3127    9.8333 C.ar    1  UNL1       -0.0016
     30 C          62.1569   89.5054   11.0914 C.ar    1  UNL1        0.0021
     31 C          63.0151   89.8290   12.2782 C.ar    1  UNL1       -0.0016
     32 C          63.9978   90.9600   12.2071 C.ar    1  UNL1        0.0100
     33 N          66.0877   94.0294   10.8066 N.1     1  UNL1       -0.1908
     34 C          65.1049   92.8984   10.8779 C.1     1  UNL1        0.1004
@<TRIPOS>BOND
     1    33    34    3
     2    34    27    1
     3    27    28   ar
     4    28    29   ar
     5    29    30   ar
     6    30    26    1
     7    26    21    1
     8    21    22   ar
     9    22    23   ar
    10    23    24   ar
    11    24    25   ar
    12    25     1    1
    13     1     2   ar
    14     2     3   ar
    15     3     4    1
    16     3     5   ar
    17     5     6   ar
    18     6     7   ar
    19     7     8   ar
    20     8    11    1
    21    11    12   ar
    22    12    13   ar
    23    13    14   ar
    24    14    15    2
    25    15    16    1
    26    16    17    2
    27    16    18    1
    28    18    19    2
    29    19    20   ar
    30     8     9   ar
    31     9    10   ar
    32    30    31   ar
    33    31    32   ar
    34    32    27   ar
    35    25    21   ar
    36    10     1   ar
    37     9     5   ar
    38    20    11   ar
    39    19    14   ar
@<TRIPOS>MOLECULE
*****
 34 39 0 0 0
SMALL
GASTEIGER

@<TRIPOS>ATOM
      1 C          63.9877   89.3328   14.8649 C.ar    1  UNL1        0.0212
      2 C          64.9833   90.3919   15.2349 C.ar    1  UNL1        0.0328
      3 C          65.3312   91.4705   14.2522 C.ar    1  UNL1        0.1610
      4 F          66.3268   92.5296   14.6222 F       1  UNL1       -0.2025
      5 C          64.6833   91.4898   12.8994 C.ar    1  UNL1        0.1494
      6 N          64.8263   92.4200   11.7314 N.ar    1  UNL1       -0.1262
      7 N          63.9190   91.9356   10.6395 N.ar    1  UNL1       -0.0595
      8 N          63.2153   90.7062   11.1327 N.ar    1  UNL1       -0.2103
      9 C          63.6877   90.4306   12.5294 C.ar    1  UNL1        0.1060
     10 C          63.3399   89.3521   13.5122 C.ar    1  UNL1        0.0224
     11 C          62.2149   89.8948   10.3641 C.ar    1  UNL1        0.0858
     12 C          60.8239   90.4174   10.1592 C.ar    1  UNL1        0.0206
     13 C          59.8234   89.6059    9.3906 C.ar    1  UNL1        0.0195
     14 C          60.2140   88.2720    8.8269 C.ar    1  UNL1        0.0904
     15 N          59.4493   87.2554    8.0320 N.am    1  UNL1       -0.1594
     16 C          60.3677   86.1045    7.7455 C.2     1  UNL1        0.3478
     17 O          60.0156   84.8659    6.9763 O.2     1  UNL1       -0.2484
     18 N          61.7000   86.4098    8.3634 N.am    1  UNL1       -0.1593
     19 C          61.6051   87.7494    9.0318 C.ar    1  UNL1        0.0918
     20 C          62.6055   88.5607    9.8003 C.ar    1  UNL1        0.0372
     21 N          63.9375   86.7921   15.6941 N.ar    1  UNL1       -0.2464
     22 N          63.4148   86.0827   16.9081 N.ar    1  UNL1       -0.1674
     23 C          62.7942   87.1064   17.8119 C.ar    1  UNL1        0.1217
     24 C          62.9333   88.4485   17.1566 C.ar    1  UNL1        0.0412
     25 C          63.6399   88.2542   15.8477 C.ar    1  UNL1        0.0799
     26 C          64.6352   86.1517   14.5309 C.3     1  UNL1        0.1538
     27 C          63.2837   82.1293   13.0332 C.ar    1  UNL1        0.0684
     28 C          63.0767   83.3521   12.1893 C.ar    1  UNL1        0.0100
     29 C          63.5272   84.6930   12.6886 C.ar    1  UNL1       -0.0016
     30 C          64.1847   84.8109   14.0317 C.ar    1  UNL1        0.0021
     31 C          64.3917   83.5881   14.8754 C.ar    1  UNL1       -0.0016
     32 C          63.9412   82.2473   14.3762 C.ar    1  UNL1        0.0100
     33 N          62.3825   79.4478   12.0345 N.1     1  UNL1       -0.1908
     34 C          62.8331   80.7885   12.5338 C.1     1  UNL1        0.1004
@<TRIPOS>BOND
     1    33    34    3
     2    34    27    1
     3    27    28   ar
     4    28    29   ar
     5    29    30   ar
     6    30    26    1
     7    26    21    1
     8    21    22   ar
     9    22    23   ar
    10    23    24   ar
    11    24    25   ar
    12    25     1    1
    13     1     2   ar
    14     2     3   ar
    15     3     4    1
    16     3     5   ar
    17     5     6   ar
    18     6     7   ar
    19     7     8   ar
    20     8    11    1
    21    11    12   ar
    22    12    13   ar
    23    13    14   ar
    24    14    15    2
    25    15    16    1
    26    16    17    2
    27    16    18    1
    28    18    19    2
    29    19    20   ar
    30     8     9   ar
    31     9    10   ar
    32    30    31   ar
    33    31    32   ar
    34    32    27   ar
    35    25    21   ar
    36    10     1   ar
    37     9     5   ar
    38    20    11   ar
    39    19    14   ar
@<TRIPOS>MOLECULE
*****
 34 39 0 0 0
SMALL
GASTEIGER

@<TRIPOS>ATOM
      1 C          63.4637   89.0455   13.5610 C.ar    1  UNL1        0.0212
      2 C          63.4835   89.6105   14.9503 C.ar    1  UNL1        0.0328
      3 C          63.5060   88.6897   16.1343 C.ar    1  UNL1        0.1610
      4 F          63.5259   89.2548   17.5236 F       1  UNL1       -0.2025
      5 C          63.5087   87.2038   15.9287 C.ar    1  UNL1        0.1494
      6 N          63.5286   86.0570   16.8953 N.ar    1  UNL1       -0.1262
      7 N          63.5211   84.7832   16.1033 N.ar    1  UNL1       -0.0595
      8 N          63.4965   85.1428   14.6472 N.ar    1  UNL1       -0.2103
      9 C          63.4888   86.6389   14.5393 C.ar    1  UNL1        0.1060
     10 C          63.4663   87.5597   13.3555 C.ar    1  UNL1        0.0224
     11 C          63.4821   84.1760   13.5004 C.ar    1  UNL1        0.0858
     12 C          63.8724   84.6357   12.1270 C.ar    1  UNL1        0.0206
     13 C          63.8580   83.6690   10.9801 C.ar    1  UNL1        0.0195
     14 C          63.4533   82.2426   11.2067 C.ar    1  UNL1        0.0904
     15 N          63.3438   81.0704   10.2770 N.am    1  UNL1       -0.1594
     16 C          62.8858   79.8864   11.0759 C.2     1  UNL1        0.3478
     17 O          62.6439   78.5047   10.5446 O.2     1  UNL1       -0.2484
     18 N          62.7123   80.3266   12.4993 N.am    1  UNL1       -0.1593
     19 C          63.0630   81.7828   12.5802 C.ar    1  UNL1        0.0918
     20 C          63.0774   82.7495   13.7270 C.ar    1  UNL1        0.0372
     21 N          62.4327   89.9506   11.2668 N.ar    1  UNL1       -0.2464
     22 N          62.7916   91.0391   10.2992 N.ar    1  UNL1       -0.1674
     23 C          64.0218   91.7276   10.8114 C.ar    1  UNL1        0.1217
     24 C          64.4234   91.0646   12.0956 C.ar    1  UNL1        0.0412
     25 C          63.4412   89.9664   12.3771 C.ar    1  UNL1        0.0799
     26 C          61.2696   89.0112   11.1455 C.3     1  UNL1        0.1538
     27 C          61.1719   85.9669    7.8331 C.ar    1  UNL1        0.0684
     28 C          62.3723   86.0639    8.7275 C.ar    1  UNL1        0.0100
     29 C          62.4049   87.0787    9.8317 C.ar    1  UNL1       -0.0016
     30 C          61.2370   87.9964   10.0414 C.ar    1  UNL1        0.0021
     31 C          60.0367   87.8994    9.1470 C.ar    1  UNL1       -0.0016
     32 C          60.0042   86.8846    8.0429 C.ar    1  UNL1        0.0100
     33 N          61.1070   83.9372    5.6249 N.1     1  UNL1       -0.1908
     34 C          61.1395   84.9521    6.7290 C.1     1  UNL1        0.1004
@<TRIPOS>BOND
     1    33    34    3
     2    34    27    1
     3    27    28   ar
     4    28    29   ar
     5    29    30   ar
     6    30    26    1
     7    26    21    1
     8    21    22   ar
     9    22    23   ar
    10    23    24   ar
    11    24    25   ar
    12    25     1    1
    13     1     2   ar
    14     2     3   ar
    15     3     4    1
    16     3     5   ar
    17     5     6   ar
    18     6     7   ar
    19     7     8   ar
    20     8    11    1
    21    11    12   ar
    22    12    13   ar
    23    13    14   ar
    24    14    15    2
    25    15    16    1
    26    16    17    2
    27    16    18    1
    28    18    19    2
    29    19    20   ar
    30     8     9   ar
    31     9    10   ar
    32    30    31   ar
    33    31    32   ar
    34    32    27   ar
    35    25    21   ar
    36    10     1   ar
    37     9     5   ar
    38    20    11   ar
    39    19    14   ar
@<TRIPOS>MOLECULE
*****
 34 39 0 0 0
SMALL
GASTEIGER

@<TRIPOS>ATOM
      1 C          61.7282   86.6044    9.1748 C.ar    1  UNL1        0.0212
      2 C          62.2252   85.9793    7.9052 C.ar    1  UNL1        0.0328
      3 C          63.0702   84.7410    7.9596 C.ar    1  UNL1        0.1610
      4 F          63.5672   84.1159    6.6898 F       1  UNL1       -0.2025
      5 C          63.4179   84.1280    9.2837 C.ar    1  UNL1        0.1494
      6 N          64.2264   82.9182    9.6482 N.ar    1  UNL1       -0.1262
      7 N          64.2290   82.7958   11.1432 N.ar    1  UNL1       -0.0595
      8 N          63.4221   83.9298   11.7026 N.ar    1  UNL1       -0.2103
      9 C          62.9208   84.7532   10.5533 C.ar    1  UNL1        0.1060
     10 C          62.0759   85.9914   10.4989 C.ar    1  UNL1        0.0224
     11 C          63.1621   84.1941   13.1561 C.ar    1  UNL1        0.0858
     12 C          62.5949   83.1113   14.0254 C.ar    1  UNL1        0.0206
     13 C          62.3349   83.3755   15.4790 C.ar    1  UNL1        0.0195
     14 C          62.6421   84.7224   16.0630 C.ar    1  UNL1        0.0904
     15 N          62.4928   85.2726   17.4506 N.am    1  UNL1       -0.1594
     16 C          62.9677   86.6954   17.4387 C.2     1  UNL1        0.3478
     17 O          62.9950   87.6256   18.6150 O.2     1  UNL1       -0.2484
     18 N          63.4106   87.0246   16.0438 N.am    1  UNL1       -0.1593
     19 C          63.2094   85.8052   15.1936 C.ar    1  UNL1        0.0918
     20 C          63.4693   85.5411   13.7402 C.ar    1  UNL1        0.0372
     21 N          60.7791   88.8868   10.1924 N.ar    1  UNL1       -0.2464
     22 N          59.8256   89.9436    9.7189 N.ar    1  UNL1       -0.1674
     23 C          59.3406   89.5526    8.3545 C.ar    1  UNL1        0.1217
     24 C          59.9942   88.2542    7.9846 C.ar    1  UNL1        0.0412
     25 C          60.8833   87.8427    9.1205 C.ar    1  UNL1        0.0799
     26 C          61.5016   88.8760   11.5069 C.3     1  UNL1        0.1538
     27 C          64.8213   91.8154   12.2740 C.ar    1  UNL1        0.0684
     28 C          64.1467   91.7787   10.9347 C.ar    1  UNL1        0.0100
     29 C          63.0401   90.7988   10.6790 C.ar    1  UNL1       -0.0016
     30 C          62.6082   89.8558   11.7626 C.ar    1  UNL1        0.0021
     31 C          63.2828   89.8926   13.1018 C.ar    1  UNL1       -0.0016
     32 C          64.3894   90.8724   13.3575 C.ar    1  UNL1        0.0100
     33 N          67.0345   93.7752   12.7852 N.1     1  UNL1       -0.1908
     34 C          65.9279   92.7953   12.5297 C.1     1  UNL1        0.1004
@<TRIPOS>BOND
     1    33    34    3
     2    34    27    1
     3    27    28   ar
     4    28    29   ar
     5    29    30   ar
     6    30    26    1
     7    26    21    1
     8    21    22   ar
     9    22    23   ar
    10    23    24   ar
    11    24    25   ar
    12    25     1    1
    13     1     2   ar
    14     2     3   ar
    15     3     4    1
    16     3     5   ar
    17     5     6   ar
    18     6     7   ar
    19     7     8   ar
    20     8    11    1
    21    11    12   ar
    22    12    13   ar
    23    13    14   ar
    24    14    15    2
    25    15    16    1
    26    16    17    2
    27    16    18    1
    28    18    19    2
    29    19    20   ar
    30     8     9   ar
    31     9    10   ar
    32    30    31   ar
    33    31    32   ar
    34    32    27   ar
    35    25    21   ar
    36    10     1   ar
    37     9     5   ar
    38    20    11   ar
    39    19    14   ar
@<TRIPOS>MOLECULE
*****
 34 39 0 0 0
SMALL
GASTEIGER

@<TRIPOS>ATOM
      1 C          63.1459   86.4554   12.6737 C.ar    1  UNL1        0.0212
      2 C          62.2983   86.2701   11.4502 C.ar    1  UNL1        0.0328
      3 C          61.9081   87.4578   10.6211 C.ar    1  UNL1        0.1610
      4 F          61.0604   87.2724    9.3975 F       1  UNL1       -0.2025
      5 C          62.3657   88.8307   11.0156 C.ar    1  UNL1        0.1494
      6 N          62.1407   90.1794   10.3989 N.ar    1  UNL1       -0.1262
      7 N          62.8494   91.1983   11.2413 N.ar    1  UNL1       -0.0595
      8 N          63.5123   90.4793   12.3787 N.ar    1  UNL1       -0.2103
      9 C          63.2134   89.0160   12.2392 C.ar    1  UNL1        0.1060
     10 C          63.6035   87.8284   13.0682 C.ar    1  UNL1        0.0224
     11 C          64.3305   91.1124   13.4648 C.ar    1  UNL1        0.0858
     12 C          63.8588   91.0579   14.8876 C.ar    1  UNL1        0.0206
     13 C          64.6771   91.6911   15.9738 C.ar    1  UNL1        0.0195
     14 C          65.9669   92.3786   15.6371 C.ar    1  UNL1        0.0904
     15 N          66.9787   93.0870   16.4883 N.am    1  UNL1       -0.1594
     16 C          68.0757   93.5793   15.5915 C.2     1  UNL1        0.3478
     17 O          69.2928   94.3418   16.0242 O.2     1  UNL1       -0.2484
     18 N          67.7419   93.1752   14.1860 N.am    1  UNL1       -0.1593
     19 C          66.4386   92.4331   14.2142 C.ar    1  UNL1        0.0918
     20 C          65.6204   91.8000   13.1281 C.ar    1  UNL1        0.0372
     21 N          63.3554   83.8284   13.1213 N.ar    1  UNL1       -0.2464
     22 N          63.8831   82.9822   14.2417 N.ar    1  UNL1       -0.1674
     23 C          64.3900   83.8985   15.3157 C.ar    1  UNL1        0.1217
     24 C          64.1756   85.3111   14.8590 C.ar    1  UNL1        0.0412
     25 C          63.5361   85.2678   13.5028 C.ar    1  UNL1        0.0799
     26 C          62.7527   83.3239   11.8437 C.3     1  UNL1        0.1538
     27 C          62.8374   78.9250   10.8992 C.ar    1  UNL1        0.0684
     28 C          62.5245   79.3873   12.2915 C.ar    1  UNL1        0.0100
     29 C          62.4963   80.8536   12.6064 C.ar    1  UNL1       -0.0016
     30 C          62.7809   81.8576   11.5289 C.ar    1  UNL1        0.0021
     31 C          63.0938   81.3953   10.1366 C.ar    1  UNL1       -0.0016
     32 C          63.1220   79.9290    9.8218 C.ar    1  UNL1        0.0100
     33 N          62.8938   75.9923   10.2698 N.1     1  UNL1       -0.1908
     34 C          62.8656   77.4587   10.5844 C.1     1  UNL1        0.1004
@<TRIPOS>BOND
     1    33    34    3
     2    34    27    1
     3    27    28   ar
     4    28    29   ar
     5    29    30   ar
     6    30    26    1
     7    26    21    1
     8    21    22   ar
     9    22    23   ar
    10    23    24   ar
    11    24    25   ar
    12    25     1    1
    13     1     2   ar
    14     2     3   ar
    15     3     4    1
    16     3     5   ar
    17     5     6   ar
    18     6     7   ar
    19     7     8   ar
    20     8    11    1
    21    11    12   ar
    22    12    13   ar
    23    13    14   ar
    24    14    15    2
    25    15    16    1
    26    16    17    2
    27    16    18    1
    28    18    19    2
    29    19    20   ar
    30     8     9   ar
    31     9    10   ar
    32    30    31   ar
    33    31    32   ar
    34    32    27   ar
    35    25    21   ar
    36    10     1   ar
    37     9     5   ar
    38    20    11   ar
    39    19    14   ar
@<TRIPOS>MOLECULE
*****
 34 39 0 0 0
SMALL
GASTEIGER

@<TRIPOS>ATOM
      1 C          63.7610   86.4434   14.8894 C.ar    1  UNL1        0.0212
      2 C          64.4012   85.3919   15.7462 C.ar    1  UNL1        0.0328
      3 C          64.6317   84.0150   15.1972 C.ar    1  UNL1        0.1610
      4 F          65.2720   82.9635   16.0542 F       1  UNL1       -0.2025
      5 C          64.2219   83.6899   13.7914 C.ar    1  UNL1        0.1494
      6 N          64.3213   82.4304   12.9829 N.ar    1  UNL1       -0.1262
      7 N          63.7425   82.7036   11.6263 N.ar    1  UNL1       -0.0595
      8 N          63.2853   84.1319   11.5964 N.ar    1  UNL1       -0.2103
      9 C          63.5817   84.7415   12.9346 C.ar    1  UNL1        0.1060
     10 C          63.3512   86.1183   13.4835 C.ar    1  UNL1        0.0224
     11 C          62.6444   84.8284   10.4328 C.ar    1  UNL1        0.0858
     12 C          63.1896   84.6333    9.0490 C.ar    1  UNL1        0.0206
     13 C          62.5487   85.3297    7.8852 C.ar    1  UNL1        0.0195
     14 C          61.3627   86.2212    8.1053 C.ar    1  UNL1        0.0904
     15 N          60.5279   87.0330    7.1595 N.am    1  UNL1       -0.1594
     16 C          59.4669   87.7297    7.9587 C.2     1  UNL1        0.3478
     17 O          58.4122   88.6465    7.4139 O.2     1  UNL1       -0.2484
     18 N          59.6459   87.3486    9.3985 N.am    1  UNL1       -0.1593
     19 C          60.8175   86.4163    9.4891 C.ar    1  UNL1        0.0918
     20 C          61.4584   85.7200   10.6528 C.ar    1  UNL1        0.0372
     21 N          63.5680   89.0992   14.6555 N.ar    1  UNL1       -0.2464
     22 N          63.2827   90.2292   15.5999 N.ar    1  UNL1       -0.1674
     23 C          63.0689   89.6486   16.9663 C.ar    1  UNL1        0.1217
     24 C          63.2220   88.1598   16.8665 C.ar    1  UNL1        0.0412
     25 C          63.5305   87.8203   15.4383 C.ar    1  UNL1        0.0799
     26 C          63.8426   89.2260   13.1863 C.3     1  UNL1        0.1538
     27 C          65.4762   93.0766   11.5267 C.ar    1  UNL1        0.0684
     28 C          65.9945   92.5413   12.8287 C.ar    1  UNL1        0.0100
     29 C          65.4499   91.2578   13.3819 C.ar    1  UNL1       -0.0016
     30 C          64.3872   90.5096   12.6331 C.ar    1  UNL1        0.0021
     31 C          63.8690   91.0448   11.3312 C.ar    1  UNL1       -0.0016
     32 C          64.4135   92.3283   10.7780 C.ar    1  UNL1        0.0100
     33 N          66.5654   95.6437   10.4205 N.1     1  UNL1       -0.1908
     34 C          66.0208   94.3601   10.9736 C.1     1  UNL1        0.1004
@<TRIPOS>BOND
     1    33    34    3
     2    34    27    1
     3    27    28   ar
     4    28    29   ar
     5    29    30   ar
     6    30    26    1
     7    26    21    1
     8    21    22   ar
     9    22    23   ar
    10    23    24   ar
    11    24    25   ar
    12    25     1    1
    13     1     2   ar
    14     2     3   ar
    15     3     4    1
    16     3     5   ar
    17     5     6   ar
    18     6     7   ar
    19     7     8   ar
    20     8    11    1
    21    11    12   ar
    22    12    13   ar
    23    13    14   ar
    24    14    15    2
    25    15    16    1
    26    16    17    2
    27    16    18    1
    28    18    19    2
    29    19    20   ar
    30     8     9   ar
    31     9    10   ar
    32    30    31   ar
    33    31    32   ar
    34    32    27   ar
    35    25    21   ar
    36    10     1   ar
    37     9     5   ar
    38    20    11   ar
    39    19    14   ar
@<TRIPOS>MOLECULE
*****
 34 39 0 0 0
SMALL
GASTEIGER

@<TRIPOS>ATOM
      1 C          63.6762   90.1712   13.8982 C.ar    1  UNL1        0.0212
      2 C          63.6653   91.0738   15.0960 C.ar    1  UNL1        0.0328
      3 C          63.5245   90.4929   16.4718 C.ar    1  UNL1        0.1610
      4 F          63.5136   91.3957   17.6697 F       1  UNL1       -0.2025
      5 C          63.3946   89.0091   16.6496 C.ar    1  UNL1        0.1494
      6 N          63.2426   88.1544   17.8728 N.ar    1  UNL1       -0.1262
      7 N          63.1595   86.7234   17.4309 N.ar    1  UNL1       -0.0595
      8 N          63.2601   86.6937   15.9346 N.ar    1  UNL1       -0.2103
      9 C          63.4054   88.1064   15.4517 C.ar    1  UNL1        0.1060
     10 C          63.5462   88.6874   14.0760 C.ar    1  UNL1        0.0224
     11 C          63.2222   85.4668   15.0725 C.ar    1  UNL1        0.0858
     12 C          62.5395   84.2252   15.5648 C.ar    1  UNL1        0.0206
     13 C          62.5015   82.9981   14.7027 C.ar    1  UNL1        0.0195
     14 C          63.1461   83.0128   13.3485 C.ar    1  UNL1        0.0904
     15 N          63.2683   81.9634   12.2835 N.am    1  UNL1       -0.1594
     16 C          64.0265   82.5565   11.1332 C.2     1  UNL1        0.3478
     17 O          64.3767   81.8566    9.8536 O.2     1  UNL1       -0.2484
     18 N          64.3729   83.9725   11.4871 N.am    1  UNL1       -0.1593
     19 C          63.8288   84.2545   12.8562 C.ar    1  UNL1        0.0918
     20 C          63.8668   85.4814   13.7182 C.ar    1  UNL1        0.0372
     21 N          62.9045   90.4963   11.3597 N.ar    1  UNL1       -0.2464
     22 N          63.4186   91.2771   10.1865 N.ar    1  UNL1       -0.1674
     23 C          64.6488   92.0153   10.6242 C.ar    1  UNL1        0.1217
     24 C          64.8950   91.6909   12.0679 C.ar    1  UNL1        0.0412
     25 C          63.8170   90.7521   12.5224 C.ar    1  UNL1        0.0799
     26 C          61.6910   89.6147   11.3685 C.3     1  UNL1        0.1538
     27 C          61.2134   86.4127    8.2430 C.ar    1  UNL1        0.0684
     28 C          60.2450   87.5570    8.2985 C.ar    1  UNL1        0.0100
     29 C          60.4042   88.6243    9.3404 C.ar    1  UNL1       -0.0016
     30 C          61.5318   88.5473   10.3266 C.ar    1  UNL1        0.0021
     31 C          62.5001   87.4031   10.2711 C.ar    1  UNL1       -0.0016
     32 C          62.3409   86.3358    9.2292 C.ar    1  UNL1        0.0100
     33 N          60.8948   84.2781    6.1592 N.1     1  UNL1       -0.1908
     34 C          61.0541   85.3454    7.2011 C.1     1  UNL1        0.1004
@<TRIPOS>BOND
     1    33    34    3
     2    34    27    1
     3    27    28   ar
     4    28    29   ar
     5    29    30   ar
     6    30    26    1
     7    26    21    1
     8    21    22   ar
     9    22    23   ar
    10    23    24   ar
    11    24    25   ar
    12    25     1    1
    13     1     2   ar
    14     2     3   ar
    15     3     4    1
    16     3     5   ar
    17     5     6   ar
    18     6     7   ar
    19     7     8   ar
    20     8    11    1
    21    11    12   ar
    22    12    13   ar
    23    13    14   ar
    24    14    15    2
    25    15    16    1
    26    16    17    2
    27    16    18    1
    28    18    19    2
    29    19    20   ar
    30     8     9   ar
    31     9    10   ar
    32    30    31   ar
    33    31    32   ar
    34    32    27   ar
    35    25    21   ar
    36    10     1   ar
    37     9     5   ar
    38    20    11   ar
    39    19    14   ar
