@<TRIPOS>MOLECULE
*****
 33 37 0 0 0
SMALL
GASTEIGER

@<TRIPOS>ATOM
      1 C          62.9524   86.0919   13.0049 C.ar    1  UNL1        0.2400
      2 N          63.6572   87.3407   13.4448 N.ar    1  UNL1       -0.1929
      3 C          63.4793   88.6141   12.6723 C.ar    1  UNL1        0.1705
      4 C          62.5965   88.6387   11.4599 C.ar    1  UNL1        0.1851
      5 C          61.8916   87.3898   11.0199 C.ar    1  UNL1        0.1183
      6 N          62.0695   86.1164   11.7925 N.ar    1  UNL1       -0.2106
      7 O          62.4186   89.9121   10.6874 O.3     1  UNL1       -0.4695
      8 C          63.1234   91.1609   11.1272 C.3     1  UNL1        0.2277
      9 C          64.0063   91.1364   12.3397 C.3     1  UNL1        0.1477
     10 C          64.7112   92.3852   12.7796 C.3     1  UNL1        0.1657
     11 O          65.5940   92.3606   13.9920 O.3     1  UNL1       -0.3501
     12 C          65.7719   91.0872   14.7646 C.3     1  UNL1        0.1636
     13 C          65.0670   89.8384   14.3247 C.3     1  UNL1        0.1244
     14 N          64.1842   89.8630   13.1123 N.pl3   1  UNL1       -0.2839
     15 C          63.4582   84.7113   15.2373 C.ar    1  UNL1        0.2041
     16 N          63.5421   83.2553   15.5879 N.ar    1  UNL1       -0.2134
     17 C          63.2660   82.4625   14.3447 C.ar    1  UNL1        0.1003
     18 C          63.2135   80.9858   14.0870 C.ar    1  UNL1        0.0207
     19 C          62.9065   80.4752   12.7105 C.ar    1  UNL1        0.0016
     20 C          62.6519   81.4412   11.5915 C.ar    1  UNL1        0.0016
     21 C          62.7044   82.9180   11.8492 C.ar    1  UNL1        0.0192
     22 C          63.0115   83.4287   13.2259 C.ar    1  UNL1        0.0869
     23 N          63.1303   84.8185   13.7775 N.ar    1  UNL1       -0.2480
     24 C          62.6665   86.1271   17.2667 C.3     1  UNL1        0.1108
     25 N          63.6658   85.8587   16.1808 N.pl3   1  UNL1       -0.3023
     26 H          64.4581   86.4357   16.0874 H       1  UNL1        0.1497
     27 C          61.0088   87.4144    9.8075 C.3     1  UNL1        0.1486
     28 C          59.9309   88.0856   10.6060 C.3     1  UNL1        0.0298
     29 C          62.0867   86.7432    9.0091 C.3     1  UNL1        0.0298
     30 S          60.1260   87.4390    8.5951 S.O2    1  UNL1       -0.0064
     31 C          59.2431   87.4636    7.3826 C.3     1  UNL1        0.1764
     32 O          59.8734   88.9020    8.8087 O.2     1  UNL1       -0.1727
     33 O          60.3786   85.9759    8.3815 O.2     1  UNL1       -0.1727
@<TRIPOS>BOND
     1    24    25    1
     2    25    15    1
     3    15    16   ar
     4    16    17   ar
     5    17    18   ar
     6    18    19   ar
     7    19    20   ar
     8    20    21   ar
     9    21    22   ar
    10    22    23   ar
    11    23     1    1
    12     1     2   ar
    13     2     3   ar
    14     3     4   ar
    15     4     5   ar
    16     5    27    1
    17    27    28    1
    18    27    29    1
    19    27    30    1
    20    30    31    1
    21    30    32    2
    22    30    33    2
    23     5     6   ar
    24     4     7    1
    25     7     8    1
    26     9     8    1
    27     9    10    1
    28    10    11    1
    29    11    12    1
    30    12    13    1
    31    13    14    1
    32    23    15   ar
    33     6     1   ar
    34    14     9    1
    35    22    17   ar
    36    14     3    1
    37    25    26    1
@<TRIPOS>MOLECULE
*****
 33 37 0 0 0
SMALL
GASTEIGER

@<TRIPOS>ATOM
      1 C          63.2996   86.2941   13.3064 C.ar    1  UNL1        0.2400
      2 N          62.4717   86.5037   12.0734 N.ar    1  UNL1       -0.1929
      3 C          62.2421   87.8909   11.5510 C.ar    1  UNL1        0.1705
      4 C          62.8405   89.0685   12.2616 C.ar    1  UNL1        0.1851
      5 C          63.6685   88.8589   13.4948 C.ar    1  UNL1        0.1183
      6 N          63.8981   87.4717   14.0172 N.ar    1  UNL1       -0.2106
      7 O          62.6110   90.4557   11.7392 O.3     1  UNL1       -0.4695
      8 C          61.7830   90.6654   10.5062 C.3     1  UNL1        0.2277
      9 C          61.1845   89.4877    9.7954 C.3     1  UNL1        0.1477
     10 C          60.3566   89.6973    8.5624 C.3     1  UNL1        0.1657
     11 O          59.7582   88.5197    7.8517 O.3     1  UNL1       -0.3501
     12 C          59.9877   87.1325    8.3741 C.3     1  UNL1        0.1636
     13 C          60.8157   86.9229    9.6072 C.3     1  UNL1        0.1244
     14 N          61.4141   88.1005   10.3178 N.pl3   1  UNL1       -0.2839
     15 C          63.9381   84.5475   15.2265 C.ar    1  UNL1        0.2041
     16 N          64.0517   83.0539   15.3068 N.ar    1  UNL1       -0.2134
     17 C          63.7131   82.4902   13.9586 C.ar    1  UNL1        0.1003
     18 C          63.6571   81.0821   13.4447 C.ar    1  UNL1        0.0207
     19 C          63.2782   80.8192   12.0174 C.ar    1  UNL1        0.0016
     20 C          62.9552   81.9643   11.1039 C.ar    1  UNL1        0.0016
     21 C          63.0112   83.3724   11.6178 C.ar    1  UNL1        0.0192
     22 C          63.3902   83.6354   13.0452 C.ar    1  UNL1        0.0869
     23 N          63.5292   84.9068   13.8288 N.ar    1  UNL1       -0.2480
     24 C          63.0378   86.0623   17.1357 C.3     1  UNL1        0.1108
     25 N          64.1892   85.5122   16.3473 N.pl3   1  UNL1       -0.3023
     26 H          65.1098   85.7845   16.5655 H       1  UNL1        0.1497
     27 C          64.2669   90.0365   14.2054 C.3     1  UNL1        0.1486
     28 C          64.8189   90.5408   12.9051 C.3     1  UNL1        0.0298
     29 C          63.7150   89.5323   15.5058 C.3     1  UNL1        0.0298
     30 S          64.8654   91.2141   14.9161 S.O2    1  UNL1       -0.0064
     31 C          65.4638   92.3918   15.6268 C.3     1  UNL1        0.1764
     32 O          63.5998   91.3821   15.7034 O.2     1  UNL1       -0.1727
     33 O          66.1310   91.0462   14.1287 O.2     1  UNL1       -0.1727
@<TRIPOS>BOND
     1    24    25    1
     2    25    15    1
     3    15    16   ar
     4    16    17   ar
     5    17    18   ar
     6    18    19   ar
     7    19    20   ar
     8    20    21   ar
     9    21    22   ar
    10    22    23   ar
    11    23     1    1
    12     1     2   ar
    13     2     3   ar
    14     3     4   ar
    15     4     5   ar
    16     5    27    1
    17    27    28    1
    18    27    29    1
    19    27    30    1
    20    30    31    1
    21    30    32    2
    22    30    33    2
    23     5     6   ar
    24     4     7    1
    25     7     8    1
    26     9     8    1
    27     9    10    1
    28    10    11    1
    29    11    12    1
    30    12    13    1
    31    13    14    1
    32    23    15   ar
    33     6     1   ar
    34    14     9    1
    35    22    17   ar
    36    14     3    1
    37    25    26    1
@<TRIPOS>MOLECULE
*****
 33 37 0 0 0
SMALL
GASTEIGER

@<TRIPOS>ATOM
      1 C          63.5010   89.0525   13.4815 C.ar    1  UNL1        0.2400
      2 N          63.8168   87.6227   13.8068 N.ar    1  UNL1       -0.1929
      3 C          63.2880   86.5211   12.9368 C.ar    1  UNL1        0.1705
      4 C          62.4434   86.8494   11.7415 C.ar    1  UNL1        0.1851
      5 C          62.1276   88.2792   11.4161 C.ar    1  UNL1        0.1183
      6 N          62.6564   89.3808   12.2861 N.ar    1  UNL1       -0.2106
      7 O          61.9146   85.7478   10.8714 O.3     1  UNL1       -0.4695
      8 C          62.2304   84.3180   11.1968 C.3     1  UNL1        0.2277
      9 C          63.0750   83.9897   12.3922 C.3     1  UNL1        0.1477
     10 C          63.3908   82.5599   12.7175 C.3     1  UNL1        0.1657
     11 O          64.2354   82.2316   13.9128 O.3     1  UNL1       -0.3501
     12 C          64.7642   83.3332   14.7829 C.3     1  UNL1        0.1636
     13 C          64.4484   84.7630   14.4575 C.3     1  UNL1        0.1244
     14 N          63.6038   85.0912   13.2622 N.pl3   1  UNL1       -0.2839
     15 C          63.6545   90.4051   15.7820 C.ar    1  UNL1        0.2041
     16 N          64.4195   91.6042   16.2584 N.ar    1  UNL1       -0.2134
     17 C          65.2676   92.0942   15.1224 C.ar    1  UNL1        0.1003
     18 C          66.2281   93.2408   15.0088 C.ar    1  UNL1        0.0207
     19 C          66.9477   93.4911   13.7167 C.ar    1  UNL1        0.0016
     20 C          66.7069   92.5949   12.5382 C.ar    1  UNL1        0.0016
     21 C          65.7465   91.4484   12.6518 C.ar    1  UNL1        0.0192
     22 C          65.0268   91.1980   13.9439 C.ar    1  UNL1        0.0869
     23 N          64.0298   90.1540   14.3515 N.ar    1  UNL1       -0.2480
     24 C          63.0848   88.2527   17.1209 C.3     1  UNL1        0.1108
     25 N          62.6845   89.5986   16.5935 N.pl3   1  UNL1       -0.3023
     26 H          61.7850   89.9527   16.7801 H       1  UNL1        0.1497
     27 C          61.2830   88.6075   10.2207 C.3     1  UNL1        0.1486
     28 C          60.1044   87.9469   10.8721 C.3     1  UNL1        0.0298
     29 C          62.4617   89.2681    9.5694 C.3     1  UNL1        0.0298
     30 S          60.4384   88.9357    9.0254 S.O2    1  UNL1       -0.0064
     31 C          59.5938   89.2640    7.8300 C.3     1  UNL1        0.1764
     32 O          60.7249   87.5801    8.4507 O.2     1  UNL1       -0.1727
     33 O          60.1520   90.2913    9.6001 O.2     1  UNL1       -0.1727
@<TRIPOS>BOND
     1    24    25    1
     2    25    15    1
     3    15    16   ar
     4    16    17   ar
     5    17    18   ar
     6    18    19   ar
     7    19    20   ar
     8    20    21   ar
     9    21    22   ar
    10    22    23   ar
    11    23     1    1
    12     1     2   ar
    13     2     3   ar
    14     3     4   ar
    15     4     5   ar
    16     5    27    1
    17    27    28    1
    18    27    29    1
    19    27    30    1
    20    30    31    1
    21    30    32    2
    22    30    33    2
    23     5     6   ar
    24     4     7    1
    25     7     8    1
    26     9     8    1
    27     9    10    1
    28    10    11    1
    29    11    12    1
    30    12    13    1
    31    13    14    1
    32    23    15   ar
    33     6     1   ar
    34    14     9    1
    35    22    17   ar
    36    14     3    1
    37    25    26    1
@<TRIPOS>MOLECULE
*****
 33 37 0 0 0
SMALL
GASTEIGER

@<TRIPOS>ATOM
      1 C          62.4770   89.2343   11.4030 C.ar    1  UNL1        0.2400
      2 N          63.3348   90.4478   11.1992 N.ar    1  UNL1       -0.1929
      3 C          64.1850   90.9625   12.3227 C.ar    1  UNL1        0.1705
      4 C          64.1774   90.2638   13.6499 C.ar    1  UNL1        0.1851
      5 C          63.3195   89.0503   13.8538 C.ar    1  UNL1        0.1183
      6 N          62.4693   88.5355   12.7303 N.ar    1  UNL1       -0.2106
      7 O          65.0276   90.7786   14.7734 O.3     1  UNL1       -0.4695
      8 C          65.8854   91.9921   14.5696 C.3     1  UNL1        0.2277
      9 C          65.8930   92.6909   13.2423 C.3     1  UNL1        0.1477
     10 C          66.7508   93.9043   13.0385 C.3     1  UNL1        0.1657
     11 O          66.7585   94.6031   11.7112 O.3     1  UNL1       -0.3501
     12 C          65.9083   94.0883   10.5878 C.3     1  UNL1        0.1636
     13 C          65.0505   92.8748   10.7915 C.3     1  UNL1        0.1244
     14 N          65.0428   92.1761   12.1188 N.pl3   1  UNL1       -0.2839
     15 C          60.3861   89.3699    9.7433 C.ar    1  UNL1        0.2041
     16 N          59.8605   88.5163    8.6273 N.ar    1  UNL1       -0.2134
     17 C          60.7765   87.3384    8.4739 C.ar    1  UNL1        0.1003
     18 C          60.7575   86.1677    7.5364 C.ar    1  UNL1        0.0207
     19 C          61.8302   85.1226    7.6199 C.ar    1  UNL1        0.0016
     20 C          62.9219   85.2481    8.6410 C.ar    1  UNL1        0.0016
     21 C          62.9408   86.4188    9.5785 C.ar    1  UNL1        0.0192
     22 C          61.8681   87.4640    9.4950 C.ar    1  UNL1        0.0869
     23 N          61.6268   88.7195   10.2795 N.ar    1  UNL1       -0.2480
     24 C          59.1598   90.7085   11.6018 C.3     1  UNL1        0.1108
     25 N          59.7776   90.6492   10.2363 N.pl3   1  UNL1       -0.3023
     26 H          59.7839   91.4500    9.6637 H       1  UNL1        0.1497
     27 C          63.3119   88.3516   15.1811 C.3     1  UNL1        0.1486
     28 C          62.3947   89.4040   15.7298 C.3     1  UNL1        0.0298
     29 C          64.2291   87.2992   14.6323 C.3     1  UNL1        0.0298
     30 S          63.3043   87.6529   16.5083 S.O2    1  UNL1       -0.0064
     31 C          63.2966   86.9542   17.8357 C.3     1  UNL1        0.1764
     32 O          63.1776   88.9757   17.2040 O.2     1  UNL1       -0.1727
     33 O          63.4309   86.3300   15.8127 O.2     1  UNL1       -0.1727
@<TRIPOS>BOND
     1    24    25    1
     2    25    15    1
     3    15    16   ar
     4    16    17   ar
     5    17    18   ar
     6    18    19   ar
     7    19    20   ar
     8    20    21   ar
     9    21    22   ar
    10    22    23   ar
    11    23     1    1
    12     1     2   ar
    13     2     3   ar
    14     3     4   ar
    15     4     5   ar
    16     5    27    1
    17    27    28    1
    18    27    29    1
    19    27    30    1
    20    30    31    1
    21    30    32    2
    22    30    33    2
    23     5     6   ar
    24     4     7    1
    25     7     8    1
    26     9     8    1
    27     9    10    1
    28    10    11    1
    29    11    12    1
    30    12    13    1
    31    13    14    1
    32    23    15   ar
    33     6     1   ar
    34    14     9    1
    35    22    17   ar
    36    14     3    1
    37    25    26    1
