@<TRIPOS>MOLECULE
*****
 44 48 0 0 0
SMALL
GASTEIGER

@<TRIPOS>ATOM
      1 C          63.9299   90.1288   13.6490 C.ar    1  UNL1        0.0852
      2 C          65.1121   90.8583   13.0829 C.ar    1  UNL1        0.0221
      3 C          65.9355   91.7500   13.9644 C.ar    1  UNL1        0.0508
      4 C          67.1177   92.4795   13.3984 C.ar    1  UNL1        0.1353
      5 N          67.9411   93.3712   14.2797 N.ar    1  UNL1       -0.2089
      6 C          67.5823   93.5334   15.7271 C.ar    1  UNL1        0.2000
      7 N          66.4002   92.8039   16.2931 N.ar    1  UNL1       -0.2238
      8 C          65.5768   91.9122   15.4118 C.ar    1  UNL1        0.0888
      9 C          64.3946   91.1827   15.9778 C.ar    1  UNL1        0.0574
     10 C          63.5712   90.2911   15.0964 C.ar    1  UNL1        0.1534
     11 O          62.9137   91.1463   11.0161 O.2     1  UNL1       -0.2697
     12 C          62.5984   89.7459   11.4512 C.2     1  UNL1        0.2520
     13 N          63.1065   89.2372   12.7676 N.am    1  UNL1       -0.2779
     14 H          62.8995   88.3180   13.0532 H       1  UNL1        0.1553
     15 C          61.7749   88.8541   10.5698 C.ar    1  UNL1        0.0872
     16 C          62.4044   87.6627    9.9108 C.ar    1  UNL1        0.0820
     17 C          61.5810   86.7710    9.0294 C.ar    1  UNL1        0.2903
     18 C          60.1282   87.0707    8.8071 C.ar    1  UNL1        0.0776
     19 C          59.4988   88.2621    9.4661 C.ar    1  UNL1        0.0361
     20 C          60.3221   89.1538   10.3475 C.ar    1  UNL1        0.1449
     21 F          59.6927   90.3453   11.0065 F       1  UNL1       -0.2040
     22 N          62.2104   85.5795    8.3704 N.pl3   1  UNL1        0.0809
     23 O          63.2906   84.8152    9.0768 O.2     1  UNL1        0.0415
     24 O          61.7597   85.1524    7.0050 O.co2   1  UNL1       -0.5760
     25 N          67.4764   92.3173   11.9509 N.pl3   1  UNL1       -0.2978
     26 H          67.8955   91.4832   11.6381 H       1  UNL1        0.1536
     27 C          67.1964   93.4259   10.9801 C.ar    1  UNL1        0.0504
     28 C          67.7729   93.3744    9.5963 C.ar    1  UNL1        0.0170
     29 C          67.4930   94.4831    8.6254 C.ar    1  UNL1        0.0318
     30 C          66.6365   95.6432    9.0384 C.ar    1  UNL1        0.1507
     31 F          66.3566   96.7518    8.0675 F       1  UNL1       -0.2033
     32 C          66.0600   95.6947   10.4222 C.ar    1  UNL1        0.0863
     33 CL         65.2035   96.8549   10.8352 Cl      1  UNL1       -0.0799
     34 C          66.3399   94.5861   11.3931 C.ar    1  UNL1        0.0283
     35 O          62.3891   89.5616   15.6625 O.3     1  UNL1       -0.4741
     36 C          62.5951   88.4526   16.6511 C.3     1  UNL1        0.2069
     37 C          63.5695   87.3522   16.3516 C.3     1  UNL1        0.0646
     38 C          63.1947   85.9248   16.6202 C.3     1  UNL1        0.0761
     39 N          63.3303   84.8970   15.5361 N.3     1  UNL1       -0.2683
     40 C          64.3990   85.0430   14.4936 C.3     1  UNL1        0.1046
     41 C          64.5346   84.0153   13.4095 C.3     1  UNL1        0.1595
     42 O          63.6016   82.8415   13.3679 O.3     1  UNL1       -0.3508
     43 C          62.5329   82.6955   14.4103 C.3     1  UNL1        0.1595
     44 C          62.3973   83.7233   15.4944 C.3     1  UNL1        0.1046
@<TRIPOS>UNITY_ATOM_ATTR
22 1
charge 1
24 1
charge -1
@<TRIPOS>BOND
     1    11    12    2
     2    12    13   am
     3    13     1    1
     4     1     2   ar
     5     2     3   ar
     6     3     4   ar
     7     4    25    1
     8    25    27    1
     9    27    28   ar
    10    28    29   ar
    11    29    30   ar
    12    30    31    1
    13    30    32   ar
    14    32    33    1
    15    32    34   ar
    16     4     5   ar
    17     5     6   ar
    18     6     7   ar
    19     7     8   ar
    20     8     9   ar
    21     9    10   ar
    22    10    35    1
    23    35    36    1
    24    36    37    1
    25    37    38    1
    26    38    39    1
    27    39    40    1
    28    40    41    1
    29    41    42    1
    30    42    43    1
    31    43    44    1
    32    12    15    1
    33    15    16   ar
    34    16    17   ar
    35    17    22    1
    36    22    23    2
    37    22    24    1
    38    17    18   ar
    39    18    19   ar
    40    19    20   ar
    41    20    21    1
    42    10     1   ar
    43    44    39    1
    44    20    15   ar
    45     8     3   ar
    46    34    27   ar
    47    13    14    1
    48    25    26    1
@<TRIPOS>MOLECULE
*****
 44 48 0 0 0
SMALL
GASTEIGER

@<TRIPOS>ATOM
      1 C          64.0874   91.2354   11.9521 C.ar    1  UNL1        0.0852
      2 C          63.7883   90.9907   13.4015 C.ar    1  UNL1        0.0221
      3 C          64.6706   91.5837   14.4598 C.ar    1  UNL1        0.0508
      4 C          64.3715   91.3390   15.9092 C.ar    1  UNL1        0.1353
      5 N          65.2537   91.9319   16.9675 N.ar    1  UNL1       -0.2089
      6 C          66.4350   92.7695   16.5765 C.ar    1  UNL1        0.2000
      7 N          66.7341   93.0142   15.1272 N.ar    1  UNL1       -0.2238
      8 C          65.8519   92.4213   14.0688 C.ar    1  UNL1        0.0888
      9 C          66.1510   92.6660   12.6194 C.ar    1  UNL1        0.0574
     10 C          65.2688   92.0731   11.5611 C.ar    1  UNL1        0.1534
     11 O          62.9908   88.4639   12.2929 O.2     1  UNL1       -0.2697
     12 C          62.6569   89.2567   11.0641 C.2     1  UNL1        0.2520
     13 N          63.2052   90.6425   10.8937 N.am    1  UNL1       -0.2779
     14 H          62.9861   91.1629   10.0872 H       1  UNL1        0.1553
     15 C          61.7747   88.6638   10.0057 C.ar    1  UNL1        0.0872
     16 C          62.1496   87.3635    9.3587 C.ar    1  UNL1        0.0820
     17 C          61.2675   86.7706    8.3003 C.ar    1  UNL1        0.2903
     18 C          60.0104   87.4780    7.8889 C.ar    1  UNL1        0.0776
     19 C          59.6355   88.7784    8.5359 C.ar    1  UNL1        0.0361
     20 C          60.5177   89.3713    9.5943 C.ar    1  UNL1        0.1449
     21 F          60.1428   90.6716   10.2412 F       1  UNL1       -0.2040
     22 N          61.6423   85.4703    7.6534 N.pl3   1  UNL1        0.0809
     23 O          60.6926   84.8046    6.7021 O.2     1  UNL1        0.0415
     24 O          62.9669   84.8356    7.9576 O.co2   1  UNL1       -0.5760
     25 N          63.1901   90.5014   16.3002 N.pl3   1  UNL1       -0.2978
     26 H          62.3342   90.9323   16.5257 H       1  UNL1        0.1536
     27 C          63.3129   89.0072   16.3475 C.ar    1  UNL1        0.0504
     28 C          62.7247   88.2423   17.4959 C.ar    1  UNL1        0.0170
     29 C          62.8475   86.7481   17.5433 C.ar    1  UNL1        0.0318
     30 C          63.5586   86.0188   16.4422 C.ar    1  UNL1        0.1507
     31 F          63.6815   84.5245   16.4895 F       1  UNL1       -0.2033
     32 C          64.1469   86.7836   15.2937 C.ar    1  UNL1        0.0863
     33 CL         64.8580   86.0543   14.1927 Cl      1  UNL1       -0.0799
     34 C          64.0241   88.2778   15.2464 C.ar    1  UNL1        0.0283
     35 O          65.5679   92.3177   10.1117 O.3     1  UNL1       -0.4741
     36 C          66.8798   91.8784    9.5321 C.3     1  UNL1        0.2069
     37 C          68.1402   92.6082    9.8909 C.3     1  UNL1        0.0646
     38 C          68.4026   93.9734    9.3278 C.3     1  UNL1        0.0761
     39 N          67.2676   94.9340    9.1299 N.3     1  UNL1       -0.2683
     40 C          66.4780   95.4155   10.3109 C.3     1  UNL1        0.1046
     41 C          65.3430   96.3760   10.1131 C.3     1  UNL1        0.1595
     42 O          64.9976   96.8551    8.7342 O.3     1  UNL1       -0.3508
     43 C          65.7873   96.3736    7.5532 C.3     1  UNL1        0.1595
     44 C          66.9223   95.4131    7.7511 C.3     1  UNL1        0.1046
@<TRIPOS>UNITY_ATOM_ATTR
22 1
charge 1
24 1
charge -1
@<TRIPOS>BOND
     1    11    12    2
     2    12    13   am
     3    13     1    1
     4     1     2   ar
     5     2     3   ar
     6     3     4   ar
     7     4    25    1
     8    25    27    1
     9    27    28   ar
    10    28    29   ar
    11    29    30   ar
    12    30    31    1
    13    30    32   ar
    14    32    33    1
    15    32    34   ar
    16     4     5   ar
    17     5     6   ar
    18     6     7   ar
    19     7     8   ar
    20     8     9   ar
    21     9    10   ar
    22    10    35    1
    23    35    36    1
    24    36    37    1
    25    37    38    1
    26    38    39    1
    27    39    40    1
    28    40    41    1
    29    41    42    1
    30    42    43    1
    31    43    44    1
    32    12    15    1
    33    15    16   ar
    34    16    17   ar
    35    17    22    1
    36    22    23    2
    37    22    24    1
    38    17    18   ar
    39    18    19   ar
    40    19    20   ar
    41    20    21    1
    42    10     1   ar
    43    44    39    1
    44    20    15   ar
    45     8     3   ar
    46    34    27   ar
    47    13    14    1
    48    25    26    1
