@<TRIPOS>MOLECULE
*****
 30 33 0 0 0
SMALL
GASTEIGER

@<TRIPOS>ATOM
      1 C          65.0681   91.8942   12.8303 C.ar    1  UNL1        0.1105
      2 C          63.8997   91.0670   12.3825 C.ar    1  UNL1        0.0200
      3 C          63.5341   89.8189   13.1298 C.ar    1  UNL1        0.0160
      4 C          64.3369   89.3980   14.3249 C.ar    1  UNL1        0.0504
      5 C          65.5052   90.2252   14.7727 C.ar    1  UNL1        0.0160
      6 C          65.8708   91.4733   14.0254 C.ar    1  UNL1        0.0200
      7 N          63.9712   88.1498   15.0722 N.am    1  UNL1       -0.2839
      8 C          63.5665   86.9168   14.3201 C.2     1  UNL1        0.2260
      9 O          63.5274   86.9318   12.8207 O.2     1  UNL1       -0.2748
     10 H          63.9968   88.1399   16.0564 H       1  UNL1        0.1549
     11 C          63.2008   85.6686   15.0675 C.3     1  UNL1        0.0812
     12 C          62.8385   84.9820   16.3509 C.3     1  UNL1        0.0143
     13 C          62.9298   84.1933   15.0783 C.3     1  UNL1        0.0330
     14 C          62.8260   82.8862   14.3499 C.ar    1  UNL1       -0.0029
     15 C          61.6107   82.0246   14.5247 C.ar    1  UNL1       -0.0011
     16 C          61.5069   80.7175   13.7963 C.ar    1  UNL1        0.0204
     17 C          62.6185   80.2720   12.8929 C.ar    1  UNL1        0.0989
     18 N          63.8338   81.1336   12.7180 N.ar    1  UNL1       -0.2426
     19 C          63.9375   82.4408   13.4465 C.ar    1  UNL1        0.0946
     20 S          65.4337   93.1424   12.0830 S.O2    1  UNL1        0.0305
     21 O          65.9264   93.7612   13.3575 O.2     1  UNL1       -0.1641
     22 O          64.9411   92.5236   10.8085 O.2     1  UNL1       -0.1641
     23 N          66.2324   95.9600    9.5357 N.ar    1  UNL1       -0.2500
     24 C          65.8045   94.5560    9.8448 C.ar    1  UNL1        0.1153
     25 C          65.7993   94.3905   11.3357 C.ar    1  UNL1        0.1497
     26 C          66.2240   95.6923   11.9480 C.ar    1  UNL1        0.1404
     27 N          66.4916   96.6623   10.8356 N.ar    1  UNL1       -0.1663
     28 C          67.7395   96.8549    7.6179 C.3     1  UNL1        0.0263
     29 C          66.3758   96.5569    8.1671 C.3     1  UNL1        0.1054
     30 C          65.1556   96.8560    7.3477 C.3     1  UNL1        0.0263
@<TRIPOS>BOND
     1    28    29    1
     2    29    30    1
     3    29    23    1
     4    23    24   ar
     5    24    25   ar
     6    25    20    1
     7    20    21    2
     8    20    22    2
     9    20     1    1
    10     1     2   ar
    11     2     3   ar
    12     3     4   ar
    13     4     7    1
    14     7     8   am
    15     8     9    2
    16    11     8    1
    17    11    12    1
    18    12    13    1
    19    13    14    1
    20    14    15   ar
    21    15    16   ar
    22    16    17   ar
    23    17    18   ar
    24    18    19   ar
    25     4     5   ar
    26     5     6   ar
    27    25    26   ar
    28    26    27   ar
    29    27    23   ar
    30     6     1   ar
    31    13    11    1
    32    19    14   ar
    33     7    10    1
@<TRIPOS>MOLECULE
*****
 30 33 0 0 0
SMALL
GASTEIGER

@<TRIPOS>ATOM
      1 C          60.9672   86.8466    9.5838 C.ar    1  UNL1        0.1105
      2 C          60.9975   88.3301    9.8032 C.ar    1  UNL1        0.0200
      3 C          60.2976   89.2448    8.8422 C.ar    1  UNL1        0.0160
      4 C          59.5674   88.6760    7.6619 C.ar    1  UNL1        0.0504
      5 C          59.5371   87.1925    7.4424 C.ar    1  UNL1        0.0160
      6 C          60.2370   86.2778    8.4034 C.ar    1  UNL1        0.0200
      7 N          58.8675   89.5908    6.7009 N.am    1  UNL1       -0.2839
      8 C          59.6654   90.4229    5.7412 C.2     1  UNL1        0.2260
      9 O          61.1631   90.3403    5.7425 O.2     1  UNL1       -0.2748
     10 H          57.8845   89.6450    6.7001 H       1  UNL1        0.1549
     11 C          58.9655   91.3377    4.7803 C.3     1  UNL1        0.0812
     12 C          57.7199   92.0417    4.3299 C.3     1  UNL1        0.0143
     13 C          58.9988   92.2180    3.5662 C.3     1  UNL1        0.0330
     14 C          59.7564   92.8280    2.4244 C.ar    1  UNL1       -0.0029
     15 C          61.2282   93.0871    2.5541 C.ar    1  UNL1       -0.0011
     16 C          61.9858   93.6971    1.4122 C.ar    1  UNL1        0.0204
     17 C          61.2717   94.0481    0.1406 C.ar    1  UNL1        0.0989
     18 N          59.7999   93.7890    0.0109 N.ar    1  UNL1       -0.2426
     19 C          59.0423   93.1790    1.1528 C.ar    1  UNL1        0.0946
     20 S          61.6671   85.9318   10.5447 S.O2    1  UNL1        0.0305
     21 O          62.3631   85.2600    9.3984 O.2     1  UNL1       -0.1641
     22 O          60.9710   86.6036   11.6911 O.2     1  UNL1       -0.1641
     23 N          63.1909   83.0153   12.6031 N.ar    1  UNL1       -0.2500
     24 C          62.3690   83.5180   11.4535 C.ar    1  UNL1        0.1153
     25 C          62.3669   85.0171   11.5057 C.ar    1  UNL1        0.1497
     26 C          63.1875   85.4409   12.6876 C.ar    1  UNL1        0.1404
     27 N          63.6968   84.2037   13.3658 N.ar    1  UNL1       -0.1663
     28 C          62.7485   80.4900   12.1817 C.3     1  UNL1        0.0263
     29 C          63.4597   81.5767   12.9322 C.3     1  UNL1        0.1054
     30 C          64.4398   81.2248   14.0118 C.3     1  UNL1        0.0263
@<TRIPOS>BOND
     1    28    29    1
     2    29    30    1
     3    29    23    1
     4    23    24   ar
     5    24    25   ar
     6    25    20    1
     7    20    21    2
     8    20    22    2
     9    20     1    1
    10     1     2   ar
    11     2     3   ar
    12     3     4   ar
    13     4     7    1
    14     7     8   am
    15     8     9    2
    16    11     8    1
    17    11    12    1
    18    12    13    1
    19    13    14    1
    20    14    15   ar
    21    15    16   ar
    22    16    17   ar
    23    17    18   ar
    24    18    19   ar
    25     4     5   ar
    26     5     6   ar
    27    25    26   ar
    28    26    27   ar
    29    27    23   ar
    30     6     1   ar
    31    13    11    1
    32    19    14   ar
    33     7    10    1
@<TRIPOS>MOLECULE
*****
 30 33 0 0 0
SMALL
GASTEIGER

@<TRIPOS>ATOM
      1 C          61.6789   86.9870   10.5707 C.ar    1  UNL1        0.1105
      2 C          62.2145   88.3867   10.6340 C.ar    1  UNL1        0.0200
      3 C          61.6801   89.4368    9.7057 C.ar    1  UNL1        0.0160
      4 C          60.6102   89.0872    8.7142 C.ar    1  UNL1        0.0504
      5 C          60.0746   87.6875    8.6510 C.ar    1  UNL1        0.0160
      6 C          60.6089   86.6375    9.5793 C.ar    1  UNL1        0.0200
      7 N          60.0758   90.1374    7.7859 N.am    1  UNL1       -0.2839
      8 C          59.4833   89.7407    6.4663 C.2     1  UNL1        0.2260
      9 O          59.4252   88.2939    6.0748 O.2     1  UNL1       -0.2748
     10 H          60.1140   91.0870    8.0428 H       1  UNL1        0.1549
     11 C          58.9489   90.7909    5.5380 C.3     1  UNL1        0.0812
     12 C          57.8188   91.6612    5.0740 C.3     1  UNL1        0.0143
     13 C          59.1536   91.7395    4.3942 C.3     1  UNL1        0.0330
     14 C          60.0424   92.3324    3.3414 C.ar    1  UNL1       -0.0029
     15 C          61.5260   92.1212    3.4064 C.ar    1  UNL1       -0.0011
     16 C          62.4148   92.7141    2.3536 C.ar    1  UNL1        0.0204
     17 C          61.8199   93.5182    1.2356 C.ar    1  UNL1        0.0989
     18 N          60.3363   93.7293    1.1706 N.ar    1  UNL1       -0.2426
     19 C          59.4475   93.1364    2.2235 C.ar    1  UNL1        0.0946
     20 S          62.2132   85.9368   11.4990 S.O2    1  UNL1        0.0305
     21 O          62.7649   87.0076   12.3930 O.2     1  UNL1       -0.1641
     22 O          61.6616   84.8661   10.6051 O.2     1  UNL1       -0.1641
     23 N          63.1869   82.7452   13.4816 N.ar    1  UNL1       -0.2500
     24 C          62.4421   83.4193   12.3677 C.ar    1  UNL1        0.1153
     25 C          62.7475   84.8867   12.4273 C.ar    1  UNL1        0.1497
     26 C          63.6811   85.1195   13.5780 C.ar    1  UNL1        0.1404
     27 N          63.9527   83.7960   14.2297 N.ar    1  UNL1       -0.1663
     28 C          64.4423   80.5728   14.1559 C.3     1  UNL1        0.0263
     29 C          63.1691   81.2780   13.7929 C.3     1  UNL1        0.1054
     30 C          61.8782   80.5159   13.7413 C.3     1  UNL1        0.0263
@<TRIPOS>BOND
     1    28    29    1
     2    29    30    1
     3    29    23    1
     4    23    24   ar
     5    24    25   ar
     6    25    20    1
     7    20    21    2
     8    20    22    2
     9    20     1    1
    10     1     2   ar
    11     2     3   ar
    12     3     4   ar
    13     4     7    1
    14     7     8   am
    15     8     9    2
    16    11     8    1
    17    11    12    1
    18    12    13    1
    19    13    14    1
    20    14    15   ar
    21    15    16   ar
    22    16    17   ar
    23    17    18   ar
    24    18    19   ar
    25     4     5   ar
    26     5     6   ar
    27    25    26   ar
    28    26    27   ar
    29    27    23   ar
    30     6     1   ar
    31    13    11    1
    32    19    14   ar
    33     7    10    1
@<TRIPOS>MOLECULE
*****
 30 33 0 0 0
SMALL
GASTEIGER

@<TRIPOS>ATOM
      1 C          62.3142   94.2807   -0.0530 C.ar    1  UNL1        0.1105
      2 C          61.7253   92.9283   -0.3257 C.ar    1  UNL1        0.0200
      3 C          60.7839   92.3071    0.6631 C.ar    1  UNL1        0.0160
      4 C          60.4313   93.0382    1.9245 C.ar    1  UNL1        0.0504
      5 C          61.0202   94.3905    2.1972 C.ar    1  UNL1        0.0160
      6 C          61.9616   95.0118    1.2084 C.ar    1  UNL1        0.0200
      7 N          59.4898   92.4169    2.9133 N.am    1  UNL1       -0.2839
      8 C          60.0304   91.6746    4.0994 C.2     1  UNL1        0.2260
      9 O          61.5124   91.5536    4.2967 O.2     1  UNL1       -0.2748
     10 H          58.5171   92.4963    2.7838 H       1  UNL1        0.1549
     11 C          59.0889   91.0533    5.0882 C.3     1  UNL1        0.0812
     12 C          57.7056   90.9061    5.6493 C.3     1  UNL1        0.0143
     13 C          58.8416   90.1245    6.2398 C.3     1  UNL1        0.0330
     14 C          59.3546   89.1370    7.2455 C.ar    1  UNL1       -0.0029
     15 C          59.0506   87.6768    7.0854 C.ar    1  UNL1       -0.0011
     16 C          59.5637   86.6893    8.0912 C.ar    1  UNL1        0.0204
     17 C          60.3807   87.1619    9.2571 C.ar    1  UNL1        0.0989
     18 N          60.6846   88.6221    9.4171 N.ar    1  UNL1       -0.2426
     19 C          60.1715   89.6096    8.4113 C.ar    1  UNL1        0.0946
     20 S          63.2557   94.9020   -1.0419 S.O2    1  UNL1        0.0305
     21 O          63.4457   93.5673   -1.6996 O.2     1  UNL1       -0.1641
     22 O          63.0656   96.2366   -0.3842 O.2     1  UNL1       -0.1641
     23 N          65.3003   96.1157   -4.1097 N.ar    1  UNL1       -0.2500
     24 C          64.1914   95.3000   -3.5139 C.ar    1  UNL1        0.1153
     25 C          64.1971   95.5233   -2.0306 C.ar    1  UNL1        0.1497
     26 C          65.3095   96.4769   -1.7097 C.ar    1  UNL1        0.1404
     27 N          65.9913   96.8431   -2.9946 N.ar    1  UNL1       -0.1663
     28 C          64.7050   95.6617   -6.5976 C.3     1  UNL1        0.0263
     29 C          65.6558   96.1908   -5.5650 C.3     1  UNL1        0.1054
     30 C          66.9619   96.7949   -5.9878 C.3     1  UNL1        0.0263
@<TRIPOS>BOND
     1    28    29    1
     2    29    30    1
     3    29    23    1
     4    23    24   ar
     5    24    25   ar
     6    25    20    1
     7    20    21    2
     8    20    22    2
     9    20     1    1
    10     1     2   ar
    11     2     3   ar
    12     3     4   ar
    13     4     7    1
    14     7     8   am
    15     8     9    2
    16    11     8    1
    17    11    12    1
    18    12    13    1
    19    13    14    1
    20    14    15   ar
    21    15    16   ar
    22    16    17   ar
    23    17    18   ar
    24    18    19   ar
    25     4     5   ar
    26     5     6   ar
    27    25    26   ar
    28    26    27   ar
    29    27    23   ar
    30     6     1   ar
    31    13    11    1
    32    19    14   ar
    33     7    10    1
@<TRIPOS>MOLECULE
*****
 30 33 0 0 0
SMALL
GASTEIGER

@<TRIPOS>ATOM
      1 C          61.0559   93.2701    1.8217 C.ar    1  UNL1        0.1105
      2 C          62.2214   92.3916    2.1677 C.ar    1  UNL1        0.0200
      3 C          62.1709   91.5263    3.3919 C.ar    1  UNL1        0.0160
      4 C          60.9548   91.5394    4.2700 C.ar    1  UNL1        0.0504
      5 C          59.7893   92.4179    3.9239 C.ar    1  UNL1        0.0160
      6 C          59.8399   93.2832    2.6997 C.ar    1  UNL1        0.0200
      7 N          60.9043   90.6741    5.4942 N.am    1  UNL1       -0.2839
      8 C          59.5955   90.1072    5.9584 C.2     1  UNL1        0.2260
      9 O          58.3371   90.4056    5.1985 O.2     1  UNL1       -0.2748
     10 H          61.7302   90.4782    5.9930 H       1  UNL1        0.1549
     11 C          59.5449   89.2418    7.1826 C.3     1  UNL1        0.0812
     12 C          59.0288   88.0260    7.8937 C.3     1  UNL1        0.0143
     13 C          59.9735   88.9587    8.5920 C.3     1  UNL1        0.0330
     14 C          60.7664   89.3337    9.8088 C.ar    1  UNL1       -0.0029
     15 C          62.0674   90.0653    9.6601 C.ar    1  UNL1       -0.0011
     16 C          62.8603   90.4403   10.8769 C.ar    1  UNL1        0.0204
     17 C          62.3522   90.0837   12.2424 C.ar    1  UNL1        0.0989
     18 N          61.0512   89.3521   12.3911 N.ar    1  UNL1       -0.2426
     19 C          60.2583   88.9771   11.1742 C.ar    1  UNL1        0.0946
     20 S          61.1065   94.1354    0.5974 S.O2    1  UNL1        0.0305
     21 O          59.8149   94.7825    1.0014 O.2     1  UNL1       -0.1641
     22 O          62.3980   93.4884    0.1934 O.2     1  UNL1       -0.1641
     23 N          61.8871   96.0178   -2.7060 N.ar    1  UNL1       -0.2500
     24 C          62.2420   95.0004   -1.6625 C.ar    1  UNL1        0.1153
     25 C          61.1570   95.0008   -0.6267 C.ar    1  UNL1        0.1497
     26 C          60.1315   96.0183   -1.0301 C.ar    1  UNL1        0.1404
     27 N          60.5826   96.6469   -2.3151 N.ar    1  UNL1       -0.1663
     28 C          64.1840   96.1706   -3.9104 C.3     1  UNL1        0.0263
     29 C          62.6946   96.3481   -3.9261 C.3     1  UNL1        0.1054
     30 C          62.0129   96.8559   -5.1619 C.3     1  UNL1        0.0263
@<TRIPOS>BOND
     1    28    29    1
     2    29    30    1
     3    29    23    1
     4    23    24   ar
     5    24    25   ar
     6    25    20    1
     7    20    21    2
     8    20    22    2
     9    20     1    1
    10     1     2   ar
    11     2     3   ar
    12     3     4   ar
    13     4     7    1
    14     7     8   am
    15     8     9    2
    16    11     8    1
    17    11    12    1
    18    12    13    1
    19    13    14    1
    20    14    15   ar
    21    15    16   ar
    22    16    17   ar
    23    17    18   ar
    24    18    19   ar
    25     4     5   ar
    26     5     6   ar
    27    25    26   ar
    28    26    27   ar
    29    27    23   ar
    30     6     1   ar
    31    13    11    1
    32    19    14   ar
    33     7    10    1
@<TRIPOS>MOLECULE
*****
 30 33 0 0 0
SMALL
GASTEIGER

@<TRIPOS>ATOM
      1 C          63.5123   86.5274   13.5904 C.ar    1  UNL1        0.1105
      2 C          64.2915   87.2117   14.6742 C.ar    1  UNL1        0.0200
      3 C          64.6026   88.6749   14.5647 C.ar    1  UNL1        0.0160
      4 C          64.1346   89.4539   13.3713 C.ar    1  UNL1        0.0504
      5 C          63.3555   88.7697   12.2875 C.ar    1  UNL1        0.0160
      6 C          63.0443   87.3065   12.3970 C.ar    1  UNL1        0.0200
      7 N          64.4458   90.9172   13.2618 N.am    1  UNL1       -0.2839
      8 C          65.7924   91.4308   13.6776 C.2     1  UNL1        0.2260
      9 O          66.8278   90.4811   14.2029 O.2     1  UNL1       -0.2748
     10 H          63.7663   91.5406   12.9170 H       1  UNL1        0.1549
     11 C          66.1036   92.8941   13.5681 C.3     1  UNL1        0.0812
     12 C          66.4170   94.2079   14.2205 C.3     1  UNL1        0.0143
     13 C          66.3293   94.1148   12.7260 C.3     1  UNL1        0.0330
     14 C          66.4089   94.7657   11.3770 C.ar    1  UNL1       -0.0029
     15 C          66.0185   96.2049   11.2144 C.ar    1  UNL1       -0.0011
     16 C          66.0981   96.8558    9.8654 C.ar    1  UNL1        0.0204
     17 C          66.5681   96.0676    8.6789 C.ar    1  UNL1        0.0989
     18 N          66.9585   94.6284    8.8414 N.ar    1  UNL1       -0.2426
     19 C          66.8789   93.9775   10.1905 C.ar    1  UNL1        0.0946
     20 S          63.2011   85.0641   13.6999 S.O2    1  UNL1        0.0305
     21 O          62.6221   85.2894   15.0652 O.2     1  UNL1       -0.1641
     22 O          63.7800   84.8389   12.3346 O.2     1  UNL1       -0.1641
     23 N          62.6000   81.2551   13.2581 N.ar    1  UNL1       -0.2500
     24 C          63.0127   82.5886   12.7092 C.ar    1  UNL1        0.1153
     25 C          62.8899   83.6009   13.8094 C.ar    1  UNL1        0.1497
     26 C          62.4013   82.8929   15.0382 C.ar    1  UNL1        0.1404
     27 N          62.2221   81.4432   14.6976 N.ar    1  UNL1       -0.1663
     28 C          62.2601   78.6797   13.2166 C.3     1  UNL1        0.0263
     29 C          62.5703   79.9607   12.5006 C.3     1  UNL1        0.1054
     30 C          62.8508   79.9474   11.0272 C.3     1  UNL1        0.0263
@<TRIPOS>BOND
     1    28    29    1
     2    29    30    1
     3    29    23    1
     4    23    24   ar
     5    24    25   ar
     6    25    20    1
     7    20    21    2
     8    20    22    2
     9    20     1    1
    10     1     2   ar
    11     2     3   ar
    12     3     4   ar
    13     4     7    1
    14     7     8   am
    15     8     9    2
    16    11     8    1
    17    11    12    1
    18    12    13    1
    19    13    14    1
    20    14    15   ar
    21    15    16   ar
    22    16    17   ar
    23    17    18   ar
    24    18    19   ar
    25     4     5   ar
    26     5     6   ar
    27    25    26   ar
    28    26    27   ar
    29    27    23   ar
    30     6     1   ar
    31    13    11    1
    32    19    14   ar
    33     7    10    1
@<TRIPOS>MOLECULE
*****
 30 33 0 0 0
SMALL
GASTEIGER

@<TRIPOS>ATOM
      1 C          64.3464   90.1271   12.8009 C.ar    1  UNL1        0.1105
      2 C          63.4564   89.5101   11.7631 C.ar    1  UNL1        0.0200
      3 C          62.9143   88.1264   11.9667 C.ar    1  UNL1        0.0160
      4 C          63.2621   87.3598   13.2081 C.ar    1  UNL1        0.0504
      5 C          64.1521   87.9768   14.2460 C.ar    1  UNL1        0.0160
      6 C          64.6942   89.3604   14.0424 C.ar    1  UNL1        0.0200
      7 N          62.7199   85.9760   13.4117 N.am    1  UNL1       -0.2839
      8 C          63.6199   84.8834   13.9078 C.2     1  UNL1        0.2260
      9 O          65.0620   85.1743   14.2004 O.2     1  UNL1       -0.2748
     10 H          61.7734   85.7850   13.2197 H       1  UNL1        0.1549
     11 C          63.0777   83.4996   14.1114 C.3     1  UNL1        0.0812
     12 C          62.4300   82.4752   14.9952 C.3     1  UNL1        0.0143
     13 C          62.7863   82.1274   13.5803 C.3     1  UNL1        0.0330
     14 C          62.8237   81.1344   12.4567 C.ar    1  UNL1       -0.0029
     15 C          63.2020   81.5791   11.0750 C.ar    1  UNL1       -0.0011
     16 C          63.2394   80.5861    9.9514 C.ar    1  UNL1        0.0204
     17 C          62.8985   79.1483   10.2095 C.ar    1  UNL1        0.0989
     18 N          62.5203   78.7036   11.5912 N.ar    1  UNL1       -0.2426
     19 C          62.4828   79.6967   12.7148 C.ar    1  UNL1        0.0946
     20 S          64.8886   91.5108   12.5973 S.O2    1  UNL1        0.0305
     21 O          65.6935   91.3807   13.8563 O.2     1  UNL1       -0.1641
     22 O          64.0836   91.6410   11.3383 O.2     1  UNL1       -0.1641
     23 N          65.9981   95.0252   11.3794 N.ar    1  UNL1       -0.2500
     24 C          65.3176   93.7101   11.1399 C.ar    1  UNL1        0.1153
     25 C          65.4307   92.8945   12.3937 C.ar    1  UNL1        0.1497
     26 C          66.1812   93.7055   13.4081 C.ar    1  UNL1        0.1404
     27 N          66.5318   95.0224   12.7813 N.ar    1  UNL1       -0.1663
     28 C          64.8948   96.8550    9.9013 C.3     1  UNL1        0.0263
     29 C          66.1230   96.1463   10.3908 C.3     1  UNL1        0.1054
     30 C          67.4759   96.5589    9.8916 C.3     1  UNL1        0.0263
@<TRIPOS>BOND
     1    28    29    1
     2    29    30    1
     3    29    23    1
     4    23    24   ar
     5    24    25   ar
     6    25    20    1
     7    20    21    2
     8    20    22    2
     9    20     1    1
    10     1     2   ar
    11     2     3   ar
    12     3     4   ar
    13     4     7    1
    14     7     8   am
    15     8     9    2
    16    11     8    1
    17    11    12    1
    18    12    13    1
    19    13    14    1
    20    14    15   ar
    21    15    16   ar
    22    16    17   ar
    23    17    18   ar
    24    18    19   ar
    25     4     5   ar
    26     5     6   ar
    27    25    26   ar
    28    26    27   ar
    29    27    23   ar
    30     6     1   ar
    31    13    11    1
    32    19    14   ar
    33     7    10    1
@<TRIPOS>MOLECULE
*****
 30 33 0 0 0
SMALL
GASTEIGER

@<TRIPOS>ATOM
      1 C          61.0357   92.7977    2.7363 C.ar    1  UNL1        0.1105
      2 C          60.2335   93.6927    1.8389 C.ar    1  UNL1        0.0200
      3 C          60.9190   94.4965    0.7741 C.ar    1  UNL1        0.0160
      4 C          62.4069   94.4054    0.6068 C.ar    1  UNL1        0.0504
      5 C          63.2091   93.5104    1.5042 C.ar    1  UNL1        0.0160
      6 C          62.5236   92.7066    2.5689 C.ar    1  UNL1        0.0200
      7 N          63.0925   95.2093   -0.4581 N.am    1  UNL1       -0.2839
      8 C          63.1006   94.7225   -1.8768 C.2     1  UNL1        0.2260
      9 O          62.4233   93.4318   -2.2308 O.2     1  UNL1       -0.2748
     10 H          63.5370   96.0564   -0.2257 H       1  UNL1        0.1549
     11 C          63.7862   95.5264   -2.9417 C.3     1  UNL1        0.0812
     12 C          64.1638   96.8558   -3.5249 C.3     1  UNL1        0.0143
     13 C          64.5960   95.5894   -4.2027 C.3     1  UNL1        0.0330
     14 C          65.3131   94.8947   -5.3221 C.ar    1  UNL1       -0.0029
     15 C          66.0729   95.6957   -6.3376 C.ar    1  UNL1       -0.0011
     16 C          66.7899   95.0009   -7.4569 C.ar    1  UNL1        0.0204
     17 C          66.7473   93.5050   -7.5609 C.ar    1  UNL1        0.0989
     18 N          65.9875   92.7041   -6.5454 N.ar    1  UNL1       -0.2426
     19 C          65.2704   93.3989   -5.4260 C.ar    1  UNL1        0.0946
     20 S          60.3502   91.9938    3.8011 S.O2    1  UNL1        0.0305
     21 O          59.0396   92.6236    3.4329 O.2     1  UNL1       -0.1641
     22 O          61.6607   91.3640    4.1693 O.2     1  UNL1       -0.1641
     23 N          59.2646   89.6359    6.6869 N.ar    1  UNL1       -0.2500
     24 C          60.3213   90.2047    5.7869 C.ar    1  UNL1        0.1153
     25 C          59.6647   91.1899    4.8659 C.ar    1  UNL1        0.1497
     26 C          58.2022   91.2301    5.1967 C.ar    1  UNL1        0.1404
     27 N          57.9549   90.2697    6.3221 N.ar    1  UNL1       -0.1663
     28 C          59.0092   87.2030    7.5619 C.3     1  UNL1        0.0263
     29 C          59.4799   88.6131    7.7627 C.3     1  UNL1        0.1054
     30 C          60.1657   89.0002    9.0393 C.3     1  UNL1        0.0263
@<TRIPOS>BOND
     1    28    29    1
     2    29    30    1
     3    29    23    1
     4    23    24   ar
     5    24    25   ar
     6    25    20    1
     7    20    21    2
     8    20    22    2
     9    20     1    1
    10     1     2   ar
    11     2     3   ar
    12     3     4   ar
    13     4     7    1
    14     7     8   am
    15     8     9    2
    16    11     8    1
    17    11    12    1
    18    12    13    1
    19    13    14    1
    20    14    15   ar
    21    15    16   ar
    22    16    17   ar
    23    17    18   ar
    24    18    19   ar
    25     4     5   ar
    26     5     6   ar
    27    25    26   ar
    28    26    27   ar
    29    27    23   ar
    30     6     1   ar
    31    13    11    1
    32    19    14   ar
    33     7    10    1
@<TRIPOS>MOLECULE
*****
 30 33 0 0 0
SMALL
GASTEIGER

@<TRIPOS>ATOM
      1 C          59.7697   89.0940    7.3330 C.ar    1  UNL1        0.1105
      2 C          60.5173   89.6178    8.5232 C.ar    1  UNL1        0.0200
      3 C          60.9163   88.6852    9.6282 C.ar    1  UNL1        0.0160
      4 C          60.5679   87.2288    9.5429 C.ar    1  UNL1        0.0504
      5 C          59.8203   86.7049    8.3527 C.ar    1  UNL1        0.0160
      6 C          59.4213   87.6375    7.2477 C.ar    1  UNL1        0.0200
      7 N          60.9670   86.2962   10.6479 N.am    1  UNL1       -0.2839
      8 C          62.1039   85.3386   10.4472 C.2     1  UNL1        0.2260
      9 O          62.8418   85.3135    9.1415 O.2     1  UNL1       -0.2748
     10 H          60.4827   86.3126   11.5049 H       1  UNL1        0.1549
     11 C          62.5030   84.4060   11.5523 C.3     1  UNL1        0.0812
     12 C          62.8552   83.0264   12.0241 C.3     1  UNL1        0.0143
     13 C          62.8422   84.1703   12.9943 C.3     1  UNL1        0.0330
     14 C          63.0304   84.6947   14.3870 C.ar    1  UNL1       -0.0029
     15 C          64.1101   85.6963   14.6716 C.ar    1  UNL1       -0.0011
     16 C          64.2983   86.2207   16.0643 C.ar    1  UNL1        0.0204
     17 C          63.4070   85.7434   17.1723 C.ar    1  UNL1        0.0989
     18 N          62.3273   84.7417   16.8877 N.ar    1  UNL1       -0.2426
     19 C          62.1391   84.2174   15.4949 C.ar    1  UNL1        0.0946
     20 S          59.3706   90.0266    6.2280 S.O2    1  UNL1        0.0305
     21 O          57.9287   89.6853    6.4607 O.2     1  UNL1       -0.1641
     22 O          60.8126   90.3678    5.9952 O.2     1  UNL1       -0.1641
     23 N          59.0745   92.4483    3.2092 N.ar    1  UNL1       -0.2500
     24 C          59.8972   91.5948    4.1283 C.ar    1  UNL1        0.1153
     25 C          58.9716   90.9591    5.1230 C.ar    1  UNL1        0.1497
     26 C          57.5769   91.4198    4.8186 C.ar    1  UNL1        0.1404
     27 N          57.6405   92.3401    3.6359 N.ar    1  UNL1       -0.1663
     28 C          60.6537   94.3015    2.3026 C.3     1  UNL1        0.0263
     29 C          59.5945   93.2664    2.0645 C.3     1  UNL1        0.1054
     30 C          59.0555   93.0493    0.6818 C.3     1  UNL1        0.0263
@<TRIPOS>BOND
     1    28    29    1
     2    29    30    1
     3    29    23    1
     4    23    24   ar
     5    24    25   ar
     6    25    20    1
     7    20    21    2
     8    20    22    2
     9    20     1    1
    10     1     2   ar
    11     2     3   ar
    12     3     4   ar
    13     4     7    1
    14     7     8   am
    15     8     9    2
    16    11     8    1
    17    11    12    1
    18    12    13    1
    19    13    14    1
    20    14    15   ar
    21    15    16   ar
    22    16    17   ar
    23    17    18   ar
    24    18    19   ar
    25     4     5   ar
    26     5     6   ar
    27    25    26   ar
    28    26    27   ar
    29    27    23   ar
    30     6     1   ar
    31    13    11    1
    32    19    14   ar
    33     7    10    1
