@<TRIPOS>MOLECULE
*****
 27 30 0 0 0
SMALL
GASTEIGER

@<TRIPOS>ATOM
      1 O          67.2133   93.2848   13.6845 O.2     1  UNL1       -0.2699
      2 C          66.3802   93.1510   12.4444 C.2     1  UNL1        0.2494
      3 N          65.2736   92.1397   12.3897 N.am    1  UNL1       -0.2686
      4 C          65.0001   91.2624   13.5752 C.3     1  UNL1        0.1005
      5 C          63.8936   90.2512   13.5205 C.3     1  UNL1        0.0703
      6 C          63.0605   90.1174   12.2803 C.ar    1  UNL1        0.0955
      7 N          61.9109   89.2175   11.9357 N.ar    1  UNL1       -0.2136
      8 C          61.4739   89.5387   10.5372 C.ar    1  UNL1        0.2500
      9 O          62.3533   90.6371   10.0176 O.2     1  UNL1       -0.4379
     10 C          63.3339   90.9947   11.0949 C.ar    1  UNL1        0.1580
     11 C          64.4404   92.0059   11.1495 C.3     1  UNL1        0.1598
     12 C          66.6536   94.0284   11.2589 C.ar    1  UNL1        0.0537
     13 C          66.1896   95.4548   11.2586 C.ar    1  UNL1        0.0068
     14 C          66.4630   96.3322   10.0730 C.ar    1  UNL1        0.0298
     15 C          67.2004   95.7831    8.8878 C.ar    1  UNL1        0.1401
     16 F          67.4739   96.6605    7.7024 F       1  UNL1       -0.2042
     17 C          67.6645   94.3567    8.8881 C.ar    1  UNL1        0.0298
     18 C          67.3910   93.4793   10.0736 C.ar    1  UNL1        0.0068
     19 C          60.3540   88.8776    9.7896 C.3     1  UNL1        0.2895
     20 O          60.0805   87.4160    9.9869 O.3     1  UNL1       -0.4654
     21 C          61.1912   86.4187    9.8405 C.ar    1  UNL1        0.1415
     22 C          61.8135   86.1810    8.4965 C.ar    1  UNL1        0.0371
     23 C          62.9242   85.1837    8.3501 C.ar    1  UNL1        0.0054
     24 C          63.4129   84.4240    9.5478 C.ar    1  UNL1        0.0298
     25 C          62.7906   84.6618   10.8918 C.ar    1  UNL1        0.1432
     26 F          63.2792   83.9022   12.0893 F       1  UNL1       -0.2041
     27 C          61.6798   85.6591   11.0381 C.ar    1  UNL1        0.0665
@<TRIPOS>BOND
     1     1     2    2
     2     2    12    1
     3    12    13   ar
     4    13    14   ar
     5    14    15   ar
     6    15    16    1
     7    15    17   ar
     8    17    18   ar
     9     2     3   am
    10     3     4    1
    11     4     5    1
    12     5     6    1
    13     6     7   ar
    14     7     8   ar
    15     8    19    1
    16    19    20    1
    17    20    21    1
    18    21    22   ar
    19    22    23   ar
    20    23    24   ar
    21    24    25   ar
    22    25    26    1
    23    25    27   ar
    24     8     9   ar
    25     9    10   ar
    26    10    11    1
    27    18    12   ar
    28    11     3    1
    29    10     6   ar
    30    27    21   ar
@<TRIPOS>MOLECULE
*****
 27 30 0 0 0
SMALL
GASTEIGER

@<TRIPOS>ATOM
      1 O          63.5858   91.9696   16.4361 O.2     1  UNL1       -0.2699
      2 C          64.1425   90.9482   15.4890 C.2     1  UNL1        0.2494
      3 N          63.8986   89.4882   15.7324 N.am    1  UNL1       -0.2686
      4 C          63.0982   89.0497   16.9227 C.3     1  UNL1        0.1005
      5 C          62.8544   87.5898   17.1660 C.3     1  UNL1        0.0703
      6 C          63.4111   86.5684   16.2189 C.ar    1  UNL1        0.0955
      7 N          63.3355   85.0704   16.2004 N.ar    1  UNL1       -0.2136
      8 C          64.0892   84.5831   14.9986 C.ar    1  UNL1        0.2500
      9 O          64.6307   85.7800   14.2744 O.2     1  UNL1       -0.4379
     10 C          64.2115   87.0070   15.0286 C.ar    1  UNL1        0.1580
     11 C          64.4553   88.4668   14.7853 C.3     1  UNL1        0.1598
     12 C          64.9429   91.3867   14.2987 C.ar    1  UNL1        0.0537
     13 C          66.4197   91.6142   14.4304 C.ar    1  UNL1        0.0068
     14 C          67.2201   92.0527   13.2400 C.ar    1  UNL1        0.0298
     15 C          66.5438   92.2638   11.9179 C.ar    1  UNL1        0.1401
     16 F          67.3442   92.7023   10.7276 F       1  UNL1       -0.2042
     17 C          65.0670   92.0363   11.7862 C.ar    1  UNL1        0.0298
     18 C          64.2666   91.5978   12.9765 C.ar    1  UNL1        0.0068
     19 C          64.2699   83.1505   14.5922 C.3     1  UNL1        0.2895
     20 O          63.4248   82.5691   13.4978 O.3     1  UNL1       -0.4654
     21 C          63.3504   83.2522   12.1644 C.ar    1  UNL1        0.1415
     22 C          64.2008   82.7705   11.0265 C.ar    1  UNL1        0.0371
     23 C          64.1264   83.4536    9.6931 C.ar    1  UNL1        0.0054
     24 C          63.2016   84.6184    9.4977 C.ar    1  UNL1        0.0298
     25 C          62.3513   85.1001   10.6357 C.ar    1  UNL1        0.1432
     26 F          61.4265   86.2648   10.4403 F       1  UNL1       -0.2041
     27 C          62.4257   84.4169   11.9691 C.ar    1  UNL1        0.0665
@<TRIPOS>BOND
     1     1     2    2
     2     2    12    1
     3    12    13   ar
     4    13    14   ar
     5    14    15   ar
     6    15    16    1
     7    15    17   ar
     8    17    18   ar
     9     2     3   am
    10     3     4    1
    11     4     5    1
    12     5     6    1
    13     6     7   ar
    14     7     8   ar
    15     8    19    1
    16    19    20    1
    17    20    21    1
    18    21    22   ar
    19    22    23   ar
    20    23    24   ar
    21    24    25   ar
    22    25    26    1
    23    25    27   ar
    24     8     9   ar
    25     9    10   ar
    26    10    11    1
    27    18    12   ar
    28    11     3    1
    29    10     6   ar
    30    27    21   ar
@<TRIPOS>MOLECULE
*****
 27 30 0 0 0
SMALL
GASTEIGER

@<TRIPOS>ATOM
      1 O          63.5163   92.0570   16.4129 O.2     1  UNL1       -0.2699
      2 C          64.1158   91.0088   15.5231 C.2     1  UNL1        0.2494
      3 N          63.8718   89.5560   15.8058 N.am    1  UNL1       -0.2686
      4 C          63.0282   89.1514   16.9782 C.3     1  UNL1        0.1005
      5 C          62.7843   87.6987   17.2608 C.3     1  UNL1        0.0703
      6 C          63.3838   86.6505   16.3710 C.ar    1  UNL1        0.0955
      7 N          63.3184   85.1521   16.4000 N.ar    1  UNL1       -0.2136
      8 C          64.1215   84.6307   15.2454 C.ar    1  UNL1        0.2500
      9 O          64.6833   85.8068   14.5029 O.2     1  UNL1       -0.4379
     10 C          64.2274   87.0550   15.1986 C.ar    1  UNL1        0.1580
     11 C          64.4714   88.5078   14.9159 C.3     1  UNL1        0.1598
     12 C          64.9594   91.4134   14.3506 C.ar    1  UNL1        0.0537
     13 C          64.3262   91.6187   13.0064 C.ar    1  UNL1        0.0068
     14 C          65.1699   92.0233   11.8339 C.ar    1  UNL1        0.0298
     15 C          66.6466   92.2225   12.0057 C.ar    1  UNL1        0.1401
     16 F          67.4902   92.6270   10.8332 F       1  UNL1       -0.2042
     17 C          67.2798   92.0171   13.3499 C.ar    1  UNL1        0.0298
     18 C          66.4362   91.6125   14.5223 C.ar    1  UNL1        0.0068
     19 C          64.3268   83.1867   14.8948 C.3     1  UNL1        0.2895
     20 O          63.2015   82.3915   14.3021 O.3     1  UNL1       -0.4654
     21 C          63.2804   81.9264   12.8782 C.ar    1  UNL1        0.1415
     22 C          63.8133   82.8439   11.8179 C.ar    1  UNL1        0.0371
     23 C          63.8922   82.3787   10.3941 C.ar    1  UNL1        0.0054
     24 C          63.4382   80.9961   10.0305 C.ar    1  UNL1        0.0298
     25 C          62.9053   80.0786   11.0908 C.ar    1  UNL1        0.1432
     26 F          62.4513   78.6959   10.7272 F       1  UNL1       -0.2041
     27 C          62.8264   80.5438   12.5147 C.ar    1  UNL1        0.0665
@<TRIPOS>BOND
     1     1     2    2
     2     2    12    1
     3    12    13   ar
     4    13    14   ar
     5    14    15   ar
     6    15    16    1
     7    15    17   ar
     8    17    18   ar
     9     2     3   am
    10     3     4    1
    11     4     5    1
    12     5     6    1
    13     6     7   ar
    14     7     8   ar
    15     8    19    1
    16    19    20    1
    17    20    21    1
    18    21    22   ar
    19    22    23   ar
    20    23    24   ar
    21    24    25   ar
    22    25    26    1
    23    25    27   ar
    24     8     9   ar
    25     9    10   ar
    26    10    11    1
    27    18    12   ar
    28    11     3    1
    29    10     6   ar
    30    27    21   ar
@<TRIPOS>MOLECULE
*****
 27 30 0 0 0
SMALL
GASTEIGER

@<TRIPOS>ATOM
      1 O          60.6633   86.3302    9.6909 O.2     1  UNL1       -0.2699
      2 C          61.7585   86.4197   10.7119 C.2     1  UNL1        0.2494
      3 N          62.1545   87.7538   11.2719 N.am    1  UNL1       -0.2686
      4 C          61.4553   88.9982   10.8109 C.3     1  UNL1        0.1005
      5 C          61.8513   90.3321   11.3710 C.3     1  UNL1        0.0703
      6 C          62.9465   90.4217   12.3920 C.ar    1  UNL1        0.0955
      7 N          63.5492   91.5880   13.1177 N.ar    1  UNL1       -0.2136
      8 C          64.6209   91.0643   14.0272 C.ar    1  UNL1        0.2500
      9 O          64.6805   89.5745   13.8636 O.2     1  UNL1       -0.4379
     10 C          63.6457   89.1773   12.8530 C.ar    1  UNL1        0.1580
     11 C          63.2497   87.8434   12.2930 C.3     1  UNL1        0.1598
     12 C          62.4577   85.1753   11.1729 C.ar    1  UNL1        0.0537
     13 C          63.2773   84.3736   10.2058 C.ar    1  UNL1        0.0068
     14 C          63.9765   83.1291   10.6669 C.ar    1  UNL1        0.0298
     15 C          63.8561   82.6865   12.0950 C.ar    1  UNL1        0.1401
     16 F          64.5553   81.4421   12.5560 F       1  UNL1       -0.2042
     17 C          63.0364   83.4883   13.0621 C.ar    1  UNL1        0.0298
     18 C          62.3372   84.7327   12.6011 C.ar    1  UNL1        0.0068
     19 C          65.4819   91.8862   14.9401 C.3     1  UNL1        0.2895
     20 O          66.7128   92.5576   14.4070 O.3     1  UNL1       -0.4654
     21 C          66.7769   92.9724   12.9670 C.ar    1  UNL1        0.1415
     22 C          66.2076   94.2931   12.5409 C.ar    1  UNL1        0.0371
     23 C          66.2717   94.7080   11.1008 C.ar    1  UNL1        0.0054
     24 C          66.9052   93.8021   10.0868 C.ar    1  UNL1        0.0298
     25 C          67.4745   92.4814   10.5130 C.ar    1  UNL1        0.1432
     26 F          68.1080   91.5755    9.4990 F       1  UNL1       -0.2041
     27 C          67.4104   92.0666   11.9531 C.ar    1  UNL1        0.0665
@<TRIPOS>BOND
     1     1     2    2
     2     2    12    1
     3    12    13   ar
     4    13    14   ar
     5    14    15   ar
     6    15    16    1
     7    15    17   ar
     8    17    18   ar
     9     2     3   am
    10     3     4    1
    11     4     5    1
    12     5     6    1
    13     6     7   ar
    14     7     8   ar
    15     8    19    1
    16    19    20    1
    17    20    21    1
    18    21    22   ar
    19    22    23   ar
    20    23    24   ar
    21    24    25   ar
    22    25    26    1
    23    25    27   ar
    24     8     9   ar
    25     9    10   ar
    26    10    11    1
    27    18    12   ar
    28    11     3    1
    29    10     6   ar
    30    27    21   ar
@<TRIPOS>MOLECULE
*****
 27 30 0 0 0
SMALL
GASTEIGER

@<TRIPOS>ATOM
      1 O          61.7759   86.0266    8.7110 O.2     1  UNL1       -0.2699
      2 C          62.3500   86.0256   10.0967 C.2     1  UNL1        0.2494
      3 N          62.5279   87.3188   10.8358 N.am    1  UNL1       -0.2686
      4 C          62.1316   88.6128   10.1891 C.3     1  UNL1        0.1005
      5 C          62.3094   89.9059   10.9282 C.3     1  UNL1        0.0703
      6 C          62.8835   89.9049   12.3140 C.ar    1  UNL1        0.0955
      7 N          63.1739   91.0143   13.2810 N.ar    1  UNL1       -0.2136
      8 C          63.7497   90.4059   14.5252 C.ar    1  UNL1        0.2500
      9 O          63.8151   88.9204   14.3273 O.2     1  UNL1       -0.4379
     10 C          63.2798   88.6108   12.9607 C.ar    1  UNL1        0.1580
     11 C          63.1019   87.3177   12.2216 C.3     1  UNL1        0.1598
     12 C          62.7463   84.7315   10.7434 C.ar    1  UNL1        0.0537
     13 C          62.2920   84.4203   12.1387 C.ar    1  UNL1        0.0068
     14 C          62.6883   83.1262   12.7854 C.ar    1  UNL1        0.0298
     15 C          63.5388   82.1432   12.0368 C.ar    1  UNL1        0.1401
     16 F          63.9351   80.8491   12.6835 F       1  UNL1       -0.2042
     17 C          63.9931   82.4544   10.6416 C.ar    1  UNL1        0.0298
     18 C          63.5968   83.7485    9.9948 C.ar    1  UNL1        0.0068
     19 C          64.1838   91.1518   15.7521 C.3     1  UNL1        0.2895
     20 O          64.9100   92.4575   15.6182 O.3     1  UNL1       -0.4654
     21 C          66.3700   92.4719   15.2746 C.ar    1  UNL1        0.1415
     22 C          67.3697   92.9820   16.2697 C.ar    1  UNL1        0.0371
     23 C          68.8297   92.9964   15.9261 C.ar    1  UNL1        0.0054
     24 C          69.2901   92.5006   14.5873 C.ar    1  UNL1        0.0298
     25 C          68.2904   91.9906   13.5921 C.ar    1  UNL1        0.1432
     26 F          68.7506   91.4949   12.2533 F       1  UNL1       -0.2041
     27 C          66.8303   91.9762   13.9358 C.ar    1  UNL1        0.0665
@<TRIPOS>BOND
     1     1     2    2
     2     2    12    1
     3    12    13   ar
     4    13    14   ar
     5    14    15   ar
     6    15    16    1
     7    15    17   ar
     8    17    18   ar
     9     2     3   am
    10     3     4    1
    11     4     5    1
    12     5     6    1
    13     6     7   ar
    14     7     8   ar
    15     8    19    1
    16    19    20    1
    17    20    21    1
    18    21    22   ar
    19    22    23   ar
    20    23    24   ar
    21    24    25   ar
    22    25    26    1
    23    25    27   ar
    24     8     9   ar
    25     9    10   ar
    26    10    11    1
    27    18    12   ar
    28    11     3    1
    29    10     6   ar
    30    27    21   ar
@<TRIPOS>MOLECULE
*****
 27 30 0 0 0
SMALL
GASTEIGER

@<TRIPOS>ATOM
      1 O          62.6689   85.6266   17.9236 O.2     1  UNL1       -0.2699
      2 C          63.1223   85.9672   16.5349 C.2     1  UNL1        0.2494
      3 N          63.3443   87.3996   16.1486 N.am    1  UNL1       -0.2686
      4 C          63.1131   88.4912   17.1509 C.3     1  UNL1        0.1005
      5 C          63.3352   89.9235   16.7646 C.3     1  UNL1        0.0703
      6 C          63.7885   90.2641   15.3759 C.ar    1  UNL1        0.0955
      7 N          64.0879   91.5750   14.7110 N.ar    1  UNL1       -0.2136
      8 C          64.5041   91.2934   13.2977 C.ar    1  UNL1        0.2500
      9 O          64.4620   89.8086   13.0891 O.2     1  UNL1       -0.4379
     10 C          64.0197   89.1724   14.3735 C.ar    1  UNL1        0.1580
     11 C          63.7976   87.7402   14.7598 C.3     1  UNL1        0.1598
     12 C          63.3535   84.8756   15.5325 C.ar    1  UNL1        0.0537
     13 C          62.3051   83.8258   15.3117 C.ar    1  UNL1        0.0068
     14 C          62.5364   82.7341   14.3092 C.ar    1  UNL1        0.0298
     15 C          63.8160   82.6922   13.5277 C.ar    1  UNL1        0.1401
     16 F          64.0473   81.6006   12.5254 F       1  UNL1       -0.2042
     17 C          64.8644   83.7421   13.7486 C.ar    1  UNL1        0.0298
     18 C          64.6332   84.8337   14.7510 C.ar    1  UNL1        0.0068
     19 C          64.8941   92.3170   12.2728 C.3     1  UNL1        0.2895
     20 O          66.3049   92.8234   12.2177 O.3     1  UNL1       -0.4654
     21 C          66.8850   93.2872   10.9145 C.ar    1  UNL1        0.1415
     22 C          66.5496   94.6508   10.3872 C.ar    1  UNL1        0.0371
     23 C          67.1296   95.1146    9.0840 C.ar    1  UNL1        0.0054
     24 C          68.0451   94.2147    8.3079 C.ar    1  UNL1        0.0298
     25 C          68.3804   92.8510    8.8352 C.ar    1  UNL1        0.1432
     26 F          69.2958   91.9511    8.0592 F       1  UNL1       -0.2041
     27 C          67.8003   92.3873   10.1385 C.ar    1  UNL1        0.0665
@<TRIPOS>BOND
     1     1     2    2
     2     2    12    1
     3    12    13   ar
     4    13    14   ar
     5    14    15   ar
     6    15    16    1
     7    15    17   ar
     8    17    18   ar
     9     2     3   am
    10     3     4    1
    11     4     5    1
    12     5     6    1
    13     6     7   ar
    14     7     8   ar
    15     8    19    1
    16    19    20    1
    17    20    21    1
    18    21    22   ar
    19    22    23   ar
    20    23    24   ar
    21    24    25   ar
    22    25    26    1
    23    25    27   ar
    24     8     9   ar
    25     9    10   ar
    26    10    11    1
    27    18    12   ar
    28    11     3    1
    29    10     6   ar
    30    27    21   ar
@<TRIPOS>MOLECULE
*****
 27 30 0 0 0
SMALL
GASTEIGER

@<TRIPOS>ATOM
      1 O          65.8244   94.2890   11.4841 O.2     1  UNL1       -0.2699
      2 C          65.6432   92.9901   12.2121 C.2     1  UNL1        0.2494
      3 N          64.6733   91.9694   11.6949 N.am    1  UNL1       -0.2686
      4 C          63.8846   92.2476   10.4497 C.3     1  UNL1        0.1005
      5 C          62.9147   91.2269    9.9325 C.3     1  UNL1        0.0703
      6 C          62.7335   89.9280   10.6605 C.ar    1  UNL1        0.0955
      7 N          61.8577   88.7403   10.3914 N.ar    1  UNL1       -0.2136
      8 C          62.1051   87.7280   11.4703 C.ar    1  UNL1        0.2500
      9 O          63.1338   88.2901   12.4062 O.2     1  UNL1       -0.4379
     10 C          63.5222   89.6498   11.9057 C.ar    1  UNL1        0.1580
     11 C          64.4921   90.6705   12.4229 C.3     1  UNL1        0.1598
     12 C          66.4319   92.7118   13.4573 C.ar    1  UNL1        0.0537
     13 C          67.8136   92.1366   13.3571 C.ar    1  UNL1        0.0068
     14 C          68.6022   91.8583   14.6024 C.ar    1  UNL1        0.0298
     15 C          68.0092   92.1554   15.9478 C.ar    1  UNL1        0.1401
     16 F          68.7979   91.8771   17.1930 F       1  UNL1       -0.2042
     17 C          66.6275   92.7306   16.0480 C.ar    1  UNL1        0.0298
     18 C          65.8389   93.0089   14.8028 C.ar    1  UNL1        0.0068
     19 C          61.4405   86.3888   11.5921 C.3     1  UNL1        0.2895
     20 O          62.0455   85.3277   12.4627 O.3     1  UNL1       -0.4654
     21 C          62.6354   84.0955   11.8433 C.ar    1  UNL1        0.1415
     22 C          63.4279   84.2000   10.5740 C.ar    1  UNL1        0.0371
     23 C          64.0178   82.9678    9.9546 C.ar    1  UNL1        0.0054
     24 C          63.8151   81.6311   10.6044 C.ar    1  UNL1        0.0298
     25 C          63.0226   81.5266   11.8737 C.ar    1  UNL1        0.1432
     26 F          62.8200   80.1900   12.5235 F       1  UNL1       -0.2041
     27 C          62.4328   82.7589   12.4931 C.ar    1  UNL1        0.0665
@<TRIPOS>BOND
     1     1     2    2
     2     2    12    1
     3    12    13   ar
     4    13    14   ar
     5    14    15   ar
     6    15    16    1
     7    15    17   ar
     8    17    18   ar
     9     2     3   am
    10     3     4    1
    11     4     5    1
    12     5     6    1
    13     6     7   ar
    14     7     8   ar
    15     8    19    1
    16    19    20    1
    17    20    21    1
    18    21    22   ar
    19    22    23   ar
    20    23    24   ar
    21    24    25   ar
    22    25    26    1
    23    25    27   ar
    24     8     9   ar
    25     9    10   ar
    26    10    11    1
    27    18    12   ar
    28    11     3    1
    29    10     6   ar
    30    27    21   ar
@<TRIPOS>MOLECULE
*****
 27 30 0 0 0
SMALL
GASTEIGER

@<TRIPOS>ATOM
      1 O          62.5920   82.4010   15.3924 O.2     1  UNL1       -0.2699
      2 C          62.9284   83.6733   14.6726 C.2     1  UNL1        0.2494
      3 N          62.9829   84.9693   15.4260 N.am    1  UNL1       -0.2686
      4 C          62.7011   84.9930   16.8991 C.3     1  UNL1        0.1005
      5 C          62.7556   86.2890   17.6523 C.3     1  UNL1        0.0703
      6 C          63.0919   87.5613   16.9325 C.ar    1  UNL1        0.0955
      7 N          63.2194   88.9789   17.4062 N.ar    1  UNL1       -0.2136
      8 C          63.5800   89.8313   16.2258 C.ar    1  UNL1        0.2500
      9 O          63.6754   88.9405   15.0227 O.2     1  UNL1       -0.4379
     10 C          63.3737   87.5376   15.4594 C.ar    1  UNL1        0.1580
     11 C          63.3192   86.2416   14.7062 C.3     1  UNL1        0.1598
     12 C          63.2102   83.6497   13.1996 C.ar    1  UNL1        0.0537
     13 C          62.4861   84.5900   12.2822 C.ar    1  UNL1        0.0068
     14 C          62.7680   84.5663   10.8091 C.ar    1  UNL1        0.0298
     15 C          63.7739   83.6023   10.2534 C.ar    1  UNL1        0.1401
     16 F          64.0557   83.5787    8.7803 F       1  UNL1       -0.2042
     17 C          64.4980   82.6620   11.1707 C.ar    1  UNL1        0.0298
     18 C          64.2162   82.6857   12.6438 C.ar    1  UNL1        0.0068
     19 C          63.8057   91.3141   16.2451 C.3     1  UNL1        0.2895
     20 O          64.4390   91.9918   15.0662 O.3     1  UNL1       -0.4654
     21 C          65.9308   92.1297   14.9925 C.ar    1  UNL1        0.1415
     22 C          66.6889   92.7054   16.1517 C.ar    1  UNL1        0.0371
     23 C          68.1807   92.8434   16.0781 C.ar    1  UNL1        0.0054
     24 C          68.9144   92.4055   14.8452 C.ar    1  UNL1        0.0298
     25 C          68.1563   91.8298   13.6860 C.ar    1  UNL1        0.1432
     26 F          68.8899   91.3919   12.4531 F       1  UNL1       -0.2041
     27 C          66.6644   91.6919   13.7597 C.ar    1  UNL1        0.0665
@<TRIPOS>BOND
     1     1     2    2
     2     2    12    1
     3    12    13   ar
     4    13    14   ar
     5    14    15   ar
     6    15    16    1
     7    15    17   ar
     8    17    18   ar
     9     2     3   am
    10     3     4    1
    11     4     5    1
    12     5     6    1
    13     6     7   ar
    14     7     8   ar
    15     8    19    1
    16    19    20    1
    17    20    21    1
    18    21    22   ar
    19    22    23   ar
    20    23    24   ar
    21    24    25   ar
    22    25    26    1
    23    25    27   ar
    24     8     9   ar
    25     9    10   ar
    26    10    11    1
    27    18    12   ar
    28    11     3    1
    29    10     6   ar
    30    27    21   ar
@<TRIPOS>MOLECULE
*****
 27 30 0 0 0
SMALL
GASTEIGER

@<TRIPOS>ATOM
      1 O          64.5305   82.6725   15.5725 O.2     1  UNL1       -0.2699
      2 C          64.0849   83.3278   14.2990 C.2     1  UNL1        0.2494
      3 N          63.9701   84.8216   14.2245 N.am    1  UNL1       -0.2686
      4 C          64.3009   85.6600   15.4235 C.3     1  UNL1        0.1005
      5 C          64.1860   87.1537   15.3490 C.3     1  UNL1        0.0703
      6 C          63.7404   87.8091   14.0755 C.ar    1  UNL1        0.0955
      7 N          63.5349   89.2483   13.7059 N.ar    1  UNL1       -0.2136
      8 C          63.0770   89.2993   12.2784 C.ar    1  UNL1        0.2500
      9 O          62.9996   87.8917   11.7658 O.2     1  UNL1       -0.4379
     10 C          63.4096   86.9707   12.8765 C.ar    1  UNL1        0.1580
     11 C          63.5244   85.4770   12.9510 C.3     1  UNL1        0.1598
     12 C          63.7541   82.4895   13.0999 C.ar    1  UNL1        0.0537
     13 C          62.9394   81.2402   13.2599 C.ar    1  UNL1        0.0068
     14 C          62.6086   80.4019   12.0608 C.ar    1  UNL1        0.0298
     15 C          63.0925   80.8128   10.7018 C.ar    1  UNL1        0.1401
     16 F          62.7617   79.9745    9.5027 F       1  UNL1       -0.2042
     17 C          63.9072   82.0621   10.5418 C.ar    1  UNL1        0.0298
     18 C          64.2380   82.9004   11.7409 C.ar    1  UNL1        0.0068
     19 C          62.7534   90.5401   11.5001 C.3     1  UNL1        0.2895
     20 O          63.8281   91.2379   10.7202 O.3     1  UNL1       -0.4654
     21 C          64.7511   92.1987   11.4092 C.ar    1  UNL1        0.1415
     22 C          65.1324   91.9754   12.8427 C.ar    1  UNL1        0.0371
     23 C          66.0554   92.9362   13.5317 C.ar    1  UNL1        0.0054
     24 C          66.5972   94.1205   12.7873 C.ar    1  UNL1        0.0298
     25 C          66.2159   94.3438   11.3538 C.ar    1  UNL1        0.1432
     26 F          66.7576   95.5280   10.6094 F       1  UNL1       -0.2041
     27 C          65.2928   93.3829   10.6648 C.ar    1  UNL1        0.0665
@<TRIPOS>BOND
     1     1     2    2
     2     2    12    1
     3    12    13   ar
     4    13    14   ar
     5    14    15   ar
     6    15    16    1
     7    15    17   ar
     8    17    18   ar
     9     2     3   am
    10     3     4    1
    11     4     5    1
    12     5     6    1
    13     6     7   ar
    14     7     8   ar
    15     8    19    1
    16    19    20    1
    17    20    21    1
    18    21    22   ar
    19    22    23   ar
    20    23    24   ar
    21    24    25   ar
    22    25    26    1
    23    25    27   ar
    24     8     9   ar
    25     9    10   ar
    26    10    11    1
    27    18    12   ar
    28    11     3    1
    29    10     6   ar
    30    27    21   ar
