@<TRIPOS>MOLECULE
*****
 35 39 0 0 0
SMALL
GASTEIGER

@<TRIPOS>ATOM
      1 C          60.3514   86.6326    9.7195 C.3     1  UNL1        0.0177
      2 C          61.3678   86.7232   10.8190 C.3     1  UNL1        0.0624
      3 C          61.6969   85.5103   11.6379 C.3     1  UNL1        0.0384
      4 C          62.7132   85.6009   12.7374 C.2     1  UNL1       -0.0343
      5 C          63.4004   86.9043   13.0181 C.2     1  UNL1       -0.0092
      6 C          64.4166   86.9949   14.1175 C.2     1  UNL1       -0.0019
      7 C          64.7458   85.7820   14.9364 C.2     1  UNL1        0.0169
      8 C          64.0587   84.4785   14.6557 C.2     1  UNL1        0.0896
      9 N          64.1762   83.1248   15.2910 N.2     1  UNL1       -0.1520
     10 N          63.2325   82.1976   14.5841 N.2     1  UNL1       -0.1507
     11 C          62.5318   82.9782   13.5119 C.2     1  UNL1        0.1054
     12 C          63.0424   84.3880   13.5562 C.3     1  UNL1        0.1032
     13 C          63.0712   88.1173   12.1992 C.3     1  UNL1        0.1205
     14 N          62.0549   88.0267   11.0997 N.3     1  UNL1       -0.2595
     15 C          63.7583   89.4207   12.4799 C.ar    1  UNL1        0.0778
     16 C          64.3440   89.6832   13.8357 C.ar    1  UNL1        0.0177
     17 C          65.0312   90.9866   14.1164 C.ar    1  UNL1        0.0171
     18 C          65.1326   92.0277   13.0412 C.ar    1  UNL1        0.0641
     19 C          64.5469   91.7654   11.6855 C.ar    1  UNL1        0.1127
     20 N          63.8597   90.4618   11.4048 N.ar    1  UNL1       -0.2452
     21 N          65.8197   93.3312   13.3219 N.pl3   1  UNL1       -0.3305
     22 H          66.0083   93.5983   14.2505 H       1  UNL1        0.1469
     23 C          66.2196   94.2277   12.1877 C.3     1  UNL1        0.1014
     24 C          66.7924   94.0140   10.8179 C.3     1  UNL1        0.0933
     25 N          66.7851   95.4956   10.5838 N.3     1  UNL1       -0.2697
     26 C          66.2124   95.7093   11.9535 C.3     1  UNL1        0.0933
     27 C          67.1850   96.3922    9.4496 C.3     1  UNL1        0.0751
     28 C          66.8643   96.0030    8.0370 C.3     1  UNL1        0.0554
     29 C          65.9382   96.8515    7.2170 C.3     1  UNL1        0.1947
     30 F          65.3269   96.2990    5.9636 F       1  UNL1       -0.2343
     31 C          61.7257   89.2396   10.2808 C.3     1  UNL1        0.1771
     32 C          60.4460   89.9835   10.5233 C.3     1  UNL1        0.4121
     33 F          59.1662   90.7274   10.7656 F       1  UNL1       -0.1685
     34 F          60.8044   90.1280   11.9725 F       1  UNL1       -0.1685
     35 F          60.0874   89.8390    9.0739 F       1  UNL1       -0.1685
@<TRIPOS>BOND
     1     2     1    1
     2     2     3    1
     3     3     4    1
     4     4     5    2
     5     5     6    1
     6     6     7    2
     7     7     8    1
     8     8     9    2
     9     9    10    1
    10    10    11    2
    11    11    12    1
    12     5    13    1
    13    13    15    1
    14    15    16   ar
    15    16    17   ar
    16    17    18   ar
    17    18    21    1
    18    21    23    1
    19    23    24    1
    20    24    25    1
    21    25    27    1
    22    27    28    1
    23    28    29    1
    24    29    30    1
    25    25    26    1
    26    18    19   ar
    27    19    20   ar
    28    13    14    1
    29    14    31    1
    30    31    32    1
    31    32    33    1
    32    32    34    1
    33    32    35    1
    34    14     2    1
    35    12     4    1
    36    20    15   ar
    37    12     8    1
    38    26    23    1
    39    21    22    1
@<TRIPOS>MOLECULE
*****
 35 39 0 0 0
SMALL
GASTEIGER

@<TRIPOS>ATOM
      1 C          63.7817   85.1556   14.1378 C.3     1  UNL1        0.0177
      2 C          63.6017   86.5022   13.5019 C.3     1  UNL1        0.0624
      3 C          64.3123   87.6978   14.0636 C.3     1  UNL1        0.0384
      4 C          64.1324   89.0444   13.4278 C.2     1  UNL1       -0.0343
      5 C          63.2418   89.1954   12.2303 C.2     1  UNL1       -0.0092
      6 C          63.0619   90.5419   11.5944 C.2     1  UNL1       -0.0019
      7 C          63.7725   91.7377   12.1561 C.2     1  UNL1        0.0169
      8 C          64.6631   91.5867   13.3536 C.2     1  UNL1        0.0896
      9 N          65.4866   92.5764   14.1231 N.2     1  UNL1       -0.1520
     10 N          66.1756   91.8415   15.2345 N.2     1  UNL1       -0.1507
     11 C          65.7778   90.3976   15.1519 C.2     1  UNL1        0.1054
     12 C          64.8430   90.2401   13.9895 C.3     1  UNL1        0.1032
     13 C          62.5312   87.9997   11.6686 C.3     1  UNL1        0.1205
     14 N          62.7112   86.6532   12.3044 N.3     1  UNL1       -0.2595
     15 C          61.6406   88.1507   10.4711 C.ar    1  UNL1        0.0778
     16 C          61.7153   87.1562    9.3506 C.ar    1  UNL1        0.0177
     17 C          60.8248   87.3072    8.1530 C.ar    1  UNL1        0.0171
     18 C          59.8594   88.4528    8.0760 C.ar    1  UNL1        0.0641
     19 C          59.7847   89.4472    9.1964 C.ar    1  UNL1        0.1127
     20 N          60.6753   89.2962   10.3940 N.ar    1  UNL1       -0.2452
     21 N          58.9689   88.6038    6.8785 N.pl3   1  UNL1       -0.3305
     22 H          58.3251   87.8944    6.6512 H       1  UNL1        0.1469
     23 C          59.0592   89.8355    6.0272 C.3     1  UNL1        0.1014
     24 C          60.1654   90.5494    5.3085 C.3     1  UNL1        0.0933
     25 N          59.1868   91.5775    4.8233 N.3     1  UNL1       -0.2697
     26 C          58.0805   90.8636    5.5421 C.3     1  UNL1        0.0933
     27 C          59.2770   92.8092    3.9720 C.3     1  UNL1        0.0751
     28 C          59.9244   92.7411    2.6207 C.3     1  UNL1        0.0554
     29 C          61.4199   92.7429    2.5045 C.3     1  UNL1        0.1947
     30 F          62.0893   91.9438    1.4260 F       1  UNL1       -0.2343
     31 C          62.0005   85.4575   11.7427 C.3     1  UNL1        0.1771
     32 C          62.7888   84.2887   11.2305 C.3     1  UNL1        0.4121
     33 F          63.5772   83.1199   10.7181 F       1  UNL1       -0.1685
     34 F          62.1946   83.4196   12.2988 F       1  UNL1       -0.1685
     35 F          63.3831   85.1578   10.1620 F       1  UNL1       -0.1685
@<TRIPOS>BOND
     1     2     1    1
     2     2     3    1
     3     3     4    1
     4     4     5    2
     5     5     6    1
     6     6     7    2
     7     7     8    1
     8     8     9    2
     9     9    10    1
    10    10    11    2
    11    11    12    1
    12     5    13    1
    13    13    15    1
    14    15    16   ar
    15    16    17   ar
    16    17    18   ar
    17    18    21    1
    18    21    23    1
    19    23    24    1
    20    24    25    1
    21    25    27    1
    22    27    28    1
    23    28    29    1
    24    29    30    1
    25    25    26    1
    26    18    19   ar
    27    19    20   ar
    28    13    14    1
    29    14    31    1
    30    31    32    1
    31    32    33    1
    32    32    34    1
    33    32    35    1
    34    14     2    1
    35    12     4    1
    36    20    15   ar
    37    12     8    1
    38    26    23    1
    39    21    22    1
@<TRIPOS>MOLECULE
*****
 35 39 0 0 0
SMALL
GASTEIGER

@<TRIPOS>ATOM
      1 C          62.0336   85.5679    8.0775 C.3     1  UNL1        0.0177
      2 C          62.3461   85.4278    9.5379 C.3     1  UNL1        0.0624
      3 C          62.4643   84.0644   10.1521 C.3     1  UNL1        0.0384
      4 C          62.7768   83.9242   11.6125 C.2     1  UNL1       -0.0343
      5 C          62.9710   85.1474   12.4587 C.2     1  UNL1       -0.0092
      6 C          63.2834   85.0073   13.9190 C.2     1  UNL1       -0.0019
      7 C          63.4017   83.6439   14.5333 C.2     1  UNL1        0.0169
      8 C          63.2075   82.4207   13.6871 C.2     1  UNL1        0.0896
      9 N          63.2624   80.9571   14.0110 N.2     1  UNL1       -0.1520
     10 N          62.9838   80.1928   12.7508 N.2     1  UNL1       -0.1507
     11 C          62.7568   81.1839   11.6480 C.2     1  UNL1        0.1054
     12 C          62.8950   82.5609   12.2267 C.3     1  UNL1        0.1032
     13 C          62.8527   86.5108   11.8444 C.3     1  UNL1        0.1205
     14 N          62.5403   86.6510   10.3841 N.3     1  UNL1       -0.2595
     15 C          63.0469   87.7340   12.6906 C.ar    1  UNL1        0.0778
     16 C          64.0485   87.7224   13.8072 C.ar    1  UNL1        0.0177
     17 C          64.2427   88.9456   14.6534 C.ar    1  UNL1        0.0171
     18 C          63.4352   90.1805   14.3830 C.ar    1  UNL1        0.0641
     19 C          62.4337   90.1922   13.2665 C.ar    1  UNL1        0.1127
     20 N          62.2395   88.9689   12.4203 N.ar    1  UNL1       -0.2452
     21 N          63.6294   91.4037   15.2292 N.pl3   1  UNL1       -0.3305
     22 H          62.8741   91.7728   15.7415 H       1  UNL1        0.1469
     23 C          64.9744   92.0645   15.2949 C.3     1  UNL1        0.1014
     24 C          65.8792   92.5207   16.4008 C.3     1  UNL1        0.0933
     25 N          66.8765   92.9990   15.3876 N.3     1  UNL1       -0.2697
     26 C          65.9717   92.5428   14.2817 C.3     1  UNL1        0.0933
     27 C          68.2216   93.6598   15.4532 C.3     1  UNL1        0.0751
     28 C          69.4687   92.8363   15.3253 C.3     1  UNL1        0.0554
     29 C          69.8050   92.1825   14.0178 C.3     1  UNL1        0.1947
     30 F          68.7101   91.6462   13.1439 F       1  UNL1       -0.2343
     31 C          62.4220   88.0144    9.7698 C.3     1  UNL1        0.1771
     32 C          61.0887   88.6994    9.7155 C.3     1  UNL1        0.4121
     33 F          59.7554   89.3845    9.6611 F       1  UNL1       -0.1685
     34 F          60.4162   87.4232   10.1264 F       1  UNL1       -0.1685
     35 F          61.7612   89.9757    9.3046 F       1  UNL1       -0.1685
@<TRIPOS>BOND
     1     2     1    1
     2     2     3    1
     3     3     4    1
     4     4     5    2
     5     5     6    1
     6     6     7    2
     7     7     8    1
     8     8     9    2
     9     9    10    1
    10    10    11    2
    11    11    12    1
    12     5    13    1
    13    13    15    1
    14    15    16   ar
    15    16    17   ar
    16    17    18   ar
    17    18    21    1
    18    21    23    1
    19    23    24    1
    20    24    25    1
    21    25    27    1
    22    27    28    1
    23    28    29    1
    24    29    30    1
    25    25    26    1
    26    18    19   ar
    27    19    20   ar
    28    13    14    1
    29    14    31    1
    30    31    32    1
    31    32    33    1
    32    32    34    1
    33    32    35    1
    34    14     2    1
    35    12     4    1
    36    20    15   ar
    37    12     8    1
    38    26    23    1
    39    21    22    1
@<TRIPOS>MOLECULE
*****
 35 39 0 0 0
SMALL
GASTEIGER

@<TRIPOS>ATOM
      1 C          63.3583   83.5228   12.0016 C.3     1  UNL1        0.0177
      2 C          62.8905   84.9210   11.7256 C.3     1  UNL1        0.0624
      3 C          62.0105   85.1977   10.5428 C.3     1  UNL1        0.0384
      4 C          61.5426   86.5959   10.2668 C.2     1  UNL1       -0.0343
      5 C          61.9548   87.7174   11.1736 C.2     1  UNL1       -0.0092
      6 C          61.4870   89.1155   10.8976 C.2     1  UNL1       -0.0019
      7 C          60.6069   89.3923    9.7147 C.2     1  UNL1        0.0169
      8 C          60.1948   88.2707    8.8079 C.2     1  UNL1        0.0896
      9 N          59.3407   88.2389    7.5753 N.2     1  UNL1       -0.1520
     10 N          59.2806   86.8210    7.0895 N.2     1  UNL1       -0.1507
     11 C          60.0976   85.9766    8.0219 C.2     1  UNL1        0.1054
     12 C          60.6626   86.8725    9.0840 C.3     1  UNL1        0.1032
     13 C          62.8348   87.4407   12.3564 C.3     1  UNL1        0.1205
     14 N          63.3026   86.0426   12.6324 N.3     1  UNL1       -0.2595
     15 C          63.2470   88.5622   13.2632 C.ar    1  UNL1        0.0778
     16 C          63.7793   89.8390   12.6829 C.ar    1  UNL1        0.0177
     17 C          64.1914   90.9605   13.5897 C.ar    1  UNL1        0.0171
     18 C          64.0713   90.8053   15.0768 C.ar    1  UNL1        0.0641
     19 C          63.5390   89.5287   15.6571 C.ar    1  UNL1        0.1127
     20 N          63.1268   88.4071   14.7503 N.ar    1  UNL1       -0.2452
     21 N          64.4834   91.9269   15.9836 N.pl3   1  UNL1       -0.3305
     22 H          63.8480   92.2835   16.6456 H       1  UNL1        0.1469
     23 C          65.8638   92.5050   15.8818 C.3     1  UNL1        0.1014
     24 C          67.1364   92.3558   16.6617 C.3     1  UNL1        0.0933
     25 N          67.8159   93.3226   15.7378 N.3     1  UNL1       -0.2697
     26 C          66.5433   93.4717   14.9579 C.3     1  UNL1        0.0933
     27 C          69.1963   93.9007   15.6359 C.3     1  UNL1        0.0751
     28 C          70.2525   93.1857   14.8465 C.3     1  UNL1        0.0554
     29 C          69.8995   91.9567   14.0623 C.3     1  UNL1        0.1947
     30 F          68.6932   91.9567   13.1707 F       1  UNL1       -0.2343
     31 C          64.1827   85.7659   13.8153 C.3     1  UNL1        0.1771
     32 C          63.9223   84.5682   14.6799 C.3     1  UNL1        0.4121
     33 F          63.6620   83.3704   15.5446 F       1  UNL1       -0.1685
     34 F          62.5012   85.0107   14.8651 F       1  UNL1       -0.1685
     35 F          65.3436   84.1256   14.4948 F       1  UNL1       -0.1685
@<TRIPOS>BOND
     1     2     1    1
     2     2     3    1
     3     3     4    1
     4     4     5    2
     5     5     6    1
     6     6     7    2
     7     7     8    1
     8     8     9    2
     9     9    10    1
    10    10    11    2
    11    11    12    1
    12     5    13    1
    13    13    15    1
    14    15    16   ar
    15    16    17   ar
    16    17    18   ar
    17    18    21    1
    18    21    23    1
    19    23    24    1
    20    24    25    1
    21    25    27    1
    22    27    28    1
    23    28    29    1
    24    29    30    1
    25    25    26    1
    26    18    19   ar
    27    19    20   ar
    28    13    14    1
    29    14    31    1
    30    31    32    1
    31    32    33    1
    32    32    34    1
    33    32    35    1
    34    14     2    1
    35    12     4    1
    36    20    15   ar
    37    12     8    1
    38    26    23    1
    39    21    22    1
@<TRIPOS>MOLECULE
*****
 35 39 0 0 0
SMALL
GASTEIGER

@<TRIPOS>ATOM
      1 C          61.6266   85.3002    8.4821 C.3     1  UNL1        0.0177
      2 C          62.1197   85.1574    9.8916 C.3     1  UNL1        0.0624
      3 C          62.1700   83.8032   10.5349 C.3     1  UNL1        0.0384
      4 C          62.6630   83.6603   11.9443 C.2     1  UNL1       -0.0343
      5 C          63.1058   84.8714   12.7105 C.2     1  UNL1       -0.0092
      6 C          63.5988   84.7285   14.1198 C.2     1  UNL1       -0.0019
      7 C          63.6491   83.3744   14.7631 C.2     1  UNL1        0.0169
      8 C          63.2064   82.1632   13.9970 C.2     1  UNL1        0.0896
      9 N          63.1433   80.7104   14.3651 N.2     1  UNL1       -0.1520
     10 N          62.6113   79.9555   13.1831 N.2     1  UNL1       -0.1507
     11 C          62.3455   80.9417   12.0845 C.2     1  UNL1        0.1054
     12 C          62.7134   82.3061   12.5875 C.3     1  UNL1        0.1032
     13 C          63.0554   86.2256   12.0671 C.3     1  UNL1        0.1205
     14 N          62.5624   86.3685   10.6578 N.3     1  UNL1       -0.2595
     15 C          63.4981   87.4368   12.8333 C.ar    1  UNL1        0.0778
     16 C          64.2423   87.2761   14.1258 C.ar    1  UNL1        0.0177
     17 C          64.6850   88.4873   14.8919 C.ar    1  UNL1        0.0171
     18 C          64.3836   89.8593   14.3656 C.ar    1  UNL1        0.0641
     19 C          63.6395   90.0200   13.0732 C.ar    1  UNL1        0.1127
     20 N          63.1967   88.8087   12.3070 N.ar    1  UNL1       -0.2452
     21 N          64.8263   91.0704   15.1318 N.pl3   1  UNL1       -0.3305
     22 H          64.7600   91.0830   16.1139 H       1  UNL1        0.1469
     23 C          65.3700   92.2625   14.4015 C.3     1  UNL1        0.1014
     24 C          65.2760   92.7793   12.9964 C.3     1  UNL1        0.0933
     25 N          66.1389   93.9484   13.3687 N.3     1  UNL1       -0.2697
     26 C          66.2329   93.4316   14.7737 C.3     1  UNL1        0.0933
     27 C          66.6826   95.1406   12.6384 C.3     1  UNL1        0.0751
     28 C          66.2078   95.4500   11.2496 C.3     1  UNL1        0.0554
     29 C          66.6193   94.5740   10.1037 C.3     1  UNL1        0.1947
     30 F          66.0406   93.1970    9.9668 F       1  UNL1       -0.2343
     31 C          62.5120   87.7227   10.0144 C.3     1  UNL1        0.1771
     32 C          61.2316   88.5038   10.0100 C.3     1  UNL1        0.4121
     33 F          59.9509   89.2849   10.0055 F       1  UNL1       -0.1685
     34 F          61.9067   89.6065    9.2497 F       1  UNL1       -0.1685
     35 F          60.5562   87.4011   10.7703 F       1  UNL1       -0.1685
@<TRIPOS>BOND
     1     2     1    1
     2     2     3    1
     3     3     4    1
     4     4     5    2
     5     5     6    1
     6     6     7    2
     7     7     8    1
     8     8     9    2
     9     9    10    1
    10    10    11    2
    11    11    12    1
    12     5    13    1
    13    13    15    1
    14    15    16   ar
    15    16    17   ar
    16    17    18   ar
    17    18    21    1
    18    21    23    1
    19    23    24    1
    20    24    25    1
    21    25    27    1
    22    27    28    1
    23    28    29    1
    24    29    30    1
    25    25    26    1
    26    18    19   ar
    27    19    20   ar
    28    13    14    1
    29    14    31    1
    30    31    32    1
    31    32    33    1
    32    32    34    1
    33    32    35    1
    34    14     2    1
    35    12     4    1
    36    20    15   ar
    37    12     8    1
    38    26    23    1
    39    21    22    1
@<TRIPOS>MOLECULE
*****
 35 39 0 0 0
SMALL
GASTEIGER

@<TRIPOS>ATOM
      1 C          63.2682   84.2768   11.8790 C.3     1  UNL1        0.0177
      2 C          62.9599   85.7402   11.7627 C.3     1  UNL1        0.0624
      3 C          63.5226   86.7069   12.7621 C.3     1  UNL1        0.0384
      4 C          63.2143   88.1703   12.6459 C.2     1  UNL1       -0.0343
      5 C          62.3434   88.6670   11.5302 C.2     1  UNL1       -0.0092
      6 C          62.0351   90.1303   11.4139 C.2     1  UNL1       -0.0019
      7 C          62.5978   91.0971   12.4134 C.2     1  UNL1        0.0169
      8 C          63.4688   90.6004   13.5290 C.2     1  UNL1        0.0896
      9 N          64.1607   91.3107   14.6545 N.2     1  UNL1       -0.1520
     10 N          64.8966   90.2863   15.4663 N.2     1  UNL1       -0.1507
     11 C          64.6595   88.9429   14.8426 C.2     1  UNL1        0.1054
     12 C          63.7770   89.1370   13.6453 C.3     1  UNL1        0.1032
     13 C          61.7807   87.7002   10.5308 C.3     1  UNL1        0.1205
     14 N          62.0889   86.2369   10.6470 N.3     1  UNL1       -0.2595
     15 C          60.9097   88.1969    9.4151 C.ar    1  UNL1        0.0778
     16 C          61.1455   89.5570    8.8281 C.ar    1  UNL1        0.0177
     17 C          60.2746   90.0537    7.7124 C.ar    1  UNL1        0.0171
     18 C          59.1677   89.1902    7.1837 C.ar    1  UNL1        0.0641
     19 C          58.9320   87.8302    7.7707 C.ar    1  UNL1        0.1127
     20 N          59.8030   87.3335    8.8864 N.ar    1  UNL1       -0.2452
     21 N          58.2968   89.6868    6.0680 N.pl3   1  UNL1       -0.3305
     22 H          57.4155   89.2769    5.9117 H       1  UNL1        0.1469
     23 C          58.7687   90.8081    5.1905 C.3     1  UNL1        0.1014
     24 C          60.0925   91.2243    4.6211 C.3     1  UNL1        0.0933
     25 N          59.4359   92.3939    3.9495 N.3     1  UNL1       -0.2697
     26 C          58.1121   91.9777    4.5189 C.3     1  UNL1        0.0933
     27 C          59.9077   93.5152    3.0719 C.3     1  UNL1        0.0751
     28 C          60.1061   93.2854    1.6030 C.3     1  UNL1        0.0554
     29 C          61.4604   92.9095    1.0788 C.3     1  UNL1        0.1947
     30 F          62.3041   91.9178    1.8235 F       1  UNL1       -0.2343
     31 C          61.5263   85.2701    9.6476 C.3     1  UNL1        0.1771
     32 C          62.1934   85.0951    8.3157 C.3     1  UNL1        0.4121
     33 F          62.8606   84.9200    6.9836 F       1  UNL1       -0.1685
     34 F          60.8590   85.1804    7.6360 F       1  UNL1       -0.1685
     35 F          63.5279   85.0097    8.9952 F       1  UNL1       -0.1685
@<TRIPOS>BOND
     1     2     1    1
     2     2     3    1
     3     3     4    1
     4     4     5    2
     5     5     6    1
     6     6     7    2
     7     7     8    1
     8     8     9    2
     9     9    10    1
    10    10    11    2
    11    11    12    1
    12     5    13    1
    13    13    15    1
    14    15    16   ar
    15    16    17   ar
    16    17    18   ar
    17    18    21    1
    18    21    23    1
    19    23    24    1
    20    24    25    1
    21    25    27    1
    22    27    28    1
    23    28    29    1
    24    29    30    1
    25    25    26    1
    26    18    19   ar
    27    19    20   ar
    28    13    14    1
    29    14    31    1
    30    31    32    1
    31    32    33    1
    32    32    34    1
    33    32    35    1
    34    14     2    1
    35    12     4    1
    36    20    15   ar
    37    12     8    1
    38    26    23    1
    39    21    22    1
