@<TRIPOS>MOLECULE
*****
 32 35 0 0 0
SMALL
GASTEIGER

@<TRIPOS>ATOM
      1 C          63.7170   89.8559   12.7516 C.2     1  UNL1        0.2253
      2 O          63.0820   90.6984   11.6853 O.2     1  UNL1       -0.2749
      3 N          63.5138   88.3697   12.7533 N.am    1  UNL1       -0.2761
      4 C          62.6756   87.7261   11.6888 C.3     1  UNL1        0.1148
      5 C          62.4724   86.2399   11.6906 C.3     1  UNL1        0.1123
      6 N          63.1074   85.3974   12.7569 N.pl3   1  UNL1       -0.3057
      7 C          63.9456   86.0410   13.8214 C.3     1  UNL1        0.0927
      8 C          64.5806   85.1985   14.8877 C.3     1  UNL1        0.0232
      9 C          64.1488   87.5272   13.8196 C.3     1  UNL1        0.1131
     10 C          62.9042   83.9112   12.7586 C.ar    1  UNL1        0.0503
     11 C          62.4490   83.2179   14.0085 C.ar    1  UNL1        0.0170
     12 C          62.2458   81.7317   14.0102 C.ar    1  UNL1        0.0332
     13 C          62.4978   80.9388   12.7621 C.ar    1  UNL1        0.1675
     14 F          62.2947   79.4527   12.7638 F       1  UNL1       -0.2018
     15 C          62.9530   81.6322   11.5122 C.ar    1  UNL1        0.1686
     16 F          63.2050   80.8393   10.2640 F       1  UNL1       -0.2018
     17 C          63.1562   83.1183   11.5105 C.ar    1  UNL1        0.0465
     18 C          65.0441   89.3822   14.6892 C.3     1  UNL1        0.0096
     19 C          64.5551   90.4995   13.8161 C.3     1  UNL1        0.0788
     20 C          64.7418   91.9878   13.8261 C.3     1  UNL1        0.0360
     21 C          66.0892   92.5727   14.1301 C.3     1  UNL1        0.1275
     22 N          67.4765   93.1429   14.1235 N.am    1  UNL1       -0.2839
     23 C          67.8612   93.4428   15.5420 C.2     1  UNL1        0.3068
     24 O          69.1664   94.0254   15.9973 O.2     1  UNL1       -0.2524
     25 N          66.7117   93.0579   16.4254 N.am    1  UNL1       -0.2384
     26 C          65.6164   92.5201   15.5527 C.2     1  UNL1        0.2451
     27 O          64.2827   92.0179   16.0205 O.2     1  UNL1       -0.2730
     28 H          68.0363   93.2939   13.3279 H       1  UNL1        0.1513
     29 H          66.6813   93.1432   17.4057 H       1  UNL1        0.1591
     30 C          66.2803   92.5030   12.6440 C.3     1  UNL1        0.0249
     31 C          67.0997   92.0894   11.4576 C.3     1  UNL1        0.0021
     32 C          65.7920   92.7960   11.2563 C.3     1  UNL1        0.0021
@<TRIPOS>BOND
     1    19    18    1
     2    19    20    1
     3    21    20    1
     4    21    30    1
     5    30    31    1
     6    31    32    1
     7    21    22    1
     8    22    23   am
     9    23    24    2
    10    23    25   am
    11    25    26   am
    12    26    27    2
    13    19     1    1
    14     1     2    2
    15     1     3   am
    16     3     4    1
    17     4     5    1
    18     5     6    1
    19     6    10    1
    20    10    11   ar
    21    11    12   ar
    22    12    13   ar
    23    13    14    1
    24    13    15   ar
    25    15    16    1
    26    15    17   ar
    27     6     7    1
    28     7     8    1
    29     7     9    1
    30    26    21    1
    31     9     3    1
    32    32    30    1
    33    17    10   ar
    34    22    28    1
    35    25    29    1
@<TRIPOS>MOLECULE
*****
 32 35 0 0 0
SMALL
GASTEIGER

@<TRIPOS>ATOM
      1 C          63.2753   90.1839   12.1526 C.2     1  UNL1        0.2253
      2 O          62.4431   90.9047   11.1339 O.2     1  UNL1       -0.2749
      3 N          63.1415   88.6987   12.3154 N.am    1  UNL1       -0.2761
      4 C          62.1756   87.9344   11.4594 C.3     1  UNL1        0.1148
      5 C          62.0418   86.4493   11.6222 C.3     1  UNL1        0.1123
      6 N          62.8740   85.7285   12.6409 N.pl3   1  UNL1       -0.3057
      7 C          63.8400   86.4928   13.4969 C.3     1  UNL1        0.0927
      8 C          64.6722   85.7720   14.5157 C.3     1  UNL1        0.0232
      9 C          63.9737   87.9779   13.3341 C.3     1  UNL1        0.1131
     10 C          62.7403   84.2433   12.8037 C.ar    1  UNL1        0.0503
     11 C          62.3625   83.6658   14.1355 C.ar    1  UNL1        0.0170
     12 C          62.2287   82.1806   14.2982 C.ar    1  UNL1        0.0332
     13 C          62.4727   81.2730   13.1291 C.ar    1  UNL1        0.1675
     14 F          62.3389   79.7879   13.2918 F       1  UNL1       -0.2018
     15 C          62.8505   81.8507   11.7973 C.ar    1  UNL1        0.1686
     16 F          63.0945   80.9431   10.6282 F       1  UNL1       -0.2018
     17 C          62.9843   83.3358   11.6346 C.ar    1  UNL1        0.0465
     18 C          63.6097   91.0373   14.3662 C.3     1  UNL1        0.0096
     19 C          64.2413   90.9482   13.0086 C.3     1  UNL1        0.0788
     20 C          65.5331   91.4399   12.4260 C.3     1  UNL1        0.0360
     21 C          65.8993   92.8907   12.5315 C.3     1  UNL1        0.1275
     22 N          66.3667   94.2613   12.9226 N.am    1  UNL1       -0.2839
     23 C          66.0946   95.1887   11.7755 C.2     1  UNL1        0.3068
     24 O          66.4039   96.6560   11.7355 O.2     1  UNL1       -0.2524
     25 N          65.4591   94.3914   10.6754 N.am    1  UNL1       -0.2384
     26 C          65.3384   92.9711   11.1426 C.2     1  UNL1        0.2451
     27 O          64.7585   91.8313   10.3586 O.2     1  UNL1       -0.2730
     28 H          66.7795   94.5087   13.7814 H       1  UNL1        0.1513
     29 H          65.1717   94.7391    9.8003 H       1  UNL1        0.1591
     30 C          66.3837   92.5071   13.8983 C.3     1  UNL1        0.0249
     31 C          66.3787   92.7145   15.3839 C.3     1  UNL1        0.0021
     32 C          67.2275   91.6352   14.7801 C.3     1  UNL1        0.0021
@<TRIPOS>BOND
     1    19    18    1
     2    19    20    1
     3    21    20    1
     4    21    30    1
     5    30    31    1
     6    31    32    1
     7    21    22    1
     8    22    23   am
     9    23    24    2
    10    23    25   am
    11    25    26   am
    12    26    27    2
    13    19     1    1
    14     1     2    2
    15     1     3   am
    16     3     4    1
    17     4     5    1
    18     5     6    1
    19     6    10    1
    20    10    11   ar
    21    11    12   ar
    22    12    13   ar
    23    13    14    1
    24    13    15   ar
    25    15    16    1
    26    15    17   ar
    27     6     7    1
    28     7     8    1
    29     7     9    1
    30    26    21    1
    31     9     3    1
    32    32    30    1
    33    17    10   ar
    34    22    28    1
    35    25    29    1
@<TRIPOS>MOLECULE
*****
 32 35 0 0 0
SMALL
GASTEIGER

@<TRIPOS>ATOM
      1 C          62.2007   86.9127   11.5430 C.2     1  UNL1        0.2253
      2 O          61.9262   85.5747   12.1631 O.2     1  UNL1       -0.2749
      3 N          63.0305   87.9237   12.2775 N.am    1  UNL1       -0.2761
      4 C          63.5858   87.5967   13.6319 C.3     1  UNL1        0.1148
      5 C          64.4156   88.6077   14.3663 C.3     1  UNL1        0.1123
      6 N          64.6900   89.9456   13.7462 N.pl3   1  UNL1       -0.3057
      7 C          64.1347   90.2726   12.3917 C.3     1  UNL1        0.0927
      8 C          64.4092   91.6106   11.7716 C.3     1  UNL1        0.0232
      9 C          63.3049   89.2616   11.6574 C.3     1  UNL1        0.1131
     10 C          65.5199   90.9566   14.4807 C.ar    1  UNL1        0.0503
     11 C          64.9316   91.7148   15.6335 C.ar    1  UNL1        0.0170
     12 C          65.7614   92.7258   16.3679 C.ar    1  UNL1        0.0332
     13 C          67.1795   92.9786   15.9495 C.ar    1  UNL1        0.1675
     14 F          68.0093   93.9895   16.6839 F       1  UNL1       -0.2018
     15 C          67.7678   92.2203   14.7966 C.ar    1  UNL1        0.1686
     16 F          69.1859   92.4730   14.3782 F       1  UNL1       -0.2018
     17 C          66.9380   91.2093   14.0623 C.ar    1  UNL1        0.0465
     18 C          62.7658   87.0145    9.2170 C.3     1  UNL1        0.0096
     19 C          61.6453   87.2397   10.1885 C.3     1  UNL1        0.0788
     20 C          60.2204   87.6872   10.0502 C.3     1  UNL1        0.0360
     21 C          59.8505   88.7013    9.0087 C.3     1  UNL1        0.1275
     22 N          59.5376   89.9224    8.1957 N.am    1  UNL1       -0.2839
     23 C          59.1489   89.4748    6.8178 C.2     1  UNL1        0.3068
     24 O          58.7565   90.3681    5.6785 O.2     1  UNL1       -0.2524
     25 N          59.2215   87.9771    6.7792 N.am    1  UNL1       -0.2384
     26 C          59.6551   87.4990    8.1333 C.2     1  UNL1        0.2451
     27 O          59.8578   86.0696    8.5404 O.2     1  UNL1       -0.2730
     28 H          59.5800   90.8540    8.5110 H       1  UNL1        0.1513
     29 H          59.0200   87.4078    6.0016 H       1  UNL1        0.1591
     30 C          60.1232   89.6916   10.1018 C.3     1  UNL1        0.0249
     31 C          60.9404   90.8194   10.6588 C.3     1  UNL1        0.0021
     32 C          59.7782   90.2791   11.4381 C.3     1  UNL1        0.0021
@<TRIPOS>BOND
     1    19    18    1
     2    19    20    1
     3    21    20    1
     4    21    30    1
     5    30    31    1
     6    31    32    1
     7    21    22    1
     8    22    23   am
     9    23    24    2
    10    23    25   am
    11    25    26   am
    12    26    27    2
    13    19     1    1
    14     1     2    2
    15     1     3   am
    16     3     4    1
    17     4     5    1
    18     5     6    1
    19     6    10    1
    20    10    11   ar
    21    11    12   ar
    22    12    13   ar
    23    13    14    1
    24    13    15   ar
    25    15    16    1
    26    15    17   ar
    27     6     7    1
    28     7     8    1
    29     7     9    1
    30    26    21    1
    31     9     3    1
    32    32    30    1
    33    17    10   ar
    34    22    28    1
    35    25    29    1
@<TRIPOS>MOLECULE
*****
 32 35 0 0 0
SMALL
GASTEIGER

@<TRIPOS>ATOM
      1 C          64.3522   89.7468   14.2869 C.2     1  UNL1        0.2253
      2 O          64.8401   90.1875   15.6351 O.2     1  UNL1       -0.2749
      3 N          64.0600   88.2977   14.0319 N.am    1  UNL1       -0.2761
      4 C          64.2557   87.2895   15.1251 C.3     1  UNL1        0.1148
      5 C          63.9635   85.8405   14.8701 C.3     1  UNL1        0.1123
      6 N          63.4756   85.3998   13.5219 N.pl3   1  UNL1       -0.3057
      7 C          63.2798   86.4080   12.4287 C.3     1  UNL1        0.0927
      8 C          62.7919   85.9673   11.0805 C.3     1  UNL1        0.0232
      9 C          63.5720   87.8570   12.6837 C.3     1  UNL1        0.1131
     10 C          63.1834   83.9507   13.2669 C.ar    1  UNL1        0.0503
     11 C          63.9260   83.2137   12.1921 C.ar    1  UNL1        0.0170
     12 C          63.6338   81.7647   11.9371 C.ar    1  UNL1        0.0332
     13 C          62.5989   81.0527   12.7570 C.ar    1  UNL1        0.1675
     14 F          62.3067   79.6038   12.5020 F       1  UNL1       -0.2018
     15 C          61.8563   81.7898   13.8318 C.ar    1  UNL1        0.1686
     16 F          60.8214   81.0779   14.6517 F       1  UNL1       -0.2018
     17 C          62.1485   83.2388   14.0868 C.ar    1  UNL1        0.0465
     18 C          62.6940   91.0888   13.1962 C.3     1  UNL1        0.0096
     19 C          64.1564   90.7550   13.1937 C.3     1  UNL1        0.0788
     20 C          65.3274   91.2088   12.3734 C.3     1  UNL1        0.0360
     21 C          65.6575   92.6691   12.2810 C.3     1  UNL1        0.1275
     22 N          66.1254   94.0821   12.4661 N.am    1  UNL1       -0.2839
     23 C          65.6859   94.8762   11.2719 C.2     1  UNL1        0.3068
     24 O          65.9412   96.3363   11.0413 O.2     1  UNL1       -0.2524
     25 N          64.9464   93.9540   10.3486 N.am    1  UNL1       -0.2384
     26 C          64.9288   92.5899   10.9723 C.2     1  UNL1        0.2451
     27 O          64.2940   91.3621   10.3895 O.2     1  UNL1       -0.2730
     28 H          66.6320   94.4277   13.2363 H       1  UNL1        0.1513
     29 H          64.5433   94.2007    9.4849 H       1  UNL1        0.1591
     30 C          66.3171   92.4431   13.6090 C.3     1  UNL1        0.0249
     31 C          66.3981   92.7140   15.0822 C.3     1  UNL1        0.0021
     32 C          67.3787   91.7807   14.4362 C.3     1  UNL1        0.0021
@<TRIPOS>BOND
     1    19    18    1
     2    19    20    1
     3    21    20    1
     4    21    30    1
     5    30    31    1
     6    31    32    1
     7    21    22    1
     8    22    23   am
     9    23    24    2
    10    23    25   am
    11    25    26   am
    12    26    27    2
    13    19     1    1
    14     1     2    2
    15     1     3   am
    16     3     4    1
    17     4     5    1
    18     5     6    1
    19     6    10    1
    20    10    11   ar
    21    11    12   ar
    22    12    13   ar
    23    13    14    1
    24    13    15   ar
    25    15    16    1
    26    15    17   ar
    27     6     7    1
    28     7     8    1
    29     7     9    1
    30    26    21    1
    31     9     3    1
    32    32    30    1
    33    17    10   ar
    34    22    28    1
    35    25    29    1
@<TRIPOS>MOLECULE
*****
 32 35 0 0 0
SMALL
GASTEIGER

@<TRIPOS>ATOM
      1 C          61.0536   89.2222   10.1403 C.2     1  UNL1        0.2253
      2 O          60.9202   89.4368    8.6617 O.2     1  UNL1       -0.2749
      3 N          62.1410   89.9181   10.9041 N.am    1  UNL1       -0.2761
      4 C          63.0950   90.8286   10.1893 C.3     1  UNL1        0.1148
      5 C          64.1823   91.5245   10.9530 C.3     1  UNL1        0.1123
      6 N          64.3157   91.3099   12.4316 N.pl3   1  UNL1       -0.3057
      7 C          63.3618   90.3994   13.1464 C.3     1  UNL1        0.0927
      8 C          63.4952   90.1848   14.6250 C.3     1  UNL1        0.0232
      9 C          62.2745   89.7035   12.3826 C.3     1  UNL1        0.1131
     10 C          65.4032   92.0058   13.1954 C.ar    1  UNL1        0.0503
     11 C          65.6915   93.4550   12.9373 C.ar    1  UNL1        0.0170
     12 C          66.7789   94.1510   13.7011 C.ar    1  UNL1        0.0332
     13 C          67.5779   93.3977   14.7229 C.ar    1  UNL1        0.1675
     14 F          68.6653   94.0935   15.4866 F       1  UNL1       -0.2018
     15 C          67.2895   91.9484   14.9809 C.ar    1  UNL1        0.1686
     16 F          68.0885   91.1951   16.0027 F       1  UNL1       -0.2018
     17 C          66.2022   91.2525   14.2172 C.ar    1  UNL1        0.0465
     18 C          59.4842   89.1338   11.9484 C.3     1  UNL1        0.0096
     19 C          60.0997   88.3117   10.8551 C.3     1  UNL1        0.0788
     20 C          59.9404   86.8897   10.4050 C.3     1  UNL1        0.0360
     21 C          60.9979   86.2488    9.5558 C.3     1  UNL1        0.1275
     22 N          62.2144   85.5901    8.9762 N.am    1  UNL1       -0.2839
     23 C          61.9839   85.4027    7.5059 C.2     1  UNL1        0.3068
     24 O          62.9439   84.7814    6.5351 O.2     1  UNL1       -0.2524
     25 N          60.6249   85.9455    7.1768 N.am    1  UNL1       -0.2384
     26 C          60.0154   86.4685    8.4438 C.2     1  UNL1        0.2451
     27 O          58.6614   87.1002    8.5755 O.2     1  UNL1       -0.2730
     28 H          63.0223   85.3270    9.4734 H       1  UNL1        0.1513
     29 H          60.2064   85.9566    6.2857 H       1  UNL1        0.1591
     30 C          61.7592   86.1631   10.8454 C.3     1  UNL1        0.0249
     31 C          62.8436   86.6692   11.7498 C.3     1  UNL1        0.0021
     32 C          61.9935   85.5087   12.1746 C.3     1  UNL1        0.0021
@<TRIPOS>BOND
     1    19    18    1
     2    19    20    1
     3    21    20    1
     4    21    30    1
     5    30    31    1
     6    31    32    1
     7    21    22    1
     8    22    23   am
     9    23    24    2
    10    23    25   am
    11    25    26   am
    12    26    27    2
    13    19     1    1
    14     1     2    2
    15     1     3   am
    16     3     4    1
    17     4     5    1
    18     5     6    1
    19     6    10    1
    20    10    11   ar
    21    11    12   ar
    22    12    13   ar
    23    13    14    1
    24    13    15   ar
    25    15    16    1
    26    15    17   ar
    27     6     7    1
    28     7     8    1
    29     7     9    1
    30    26    21    1
    31     9     3    1
    32    32    30    1
    33    17    10   ar
    34    22    28    1
    35    25    29    1
@<TRIPOS>MOLECULE
*****
 32 35 0 0 0
SMALL
GASTEIGER

@<TRIPOS>ATOM
      1 C          61.4906   89.6101   10.4181 C.2     1  UNL1        0.2253
      2 O          61.4474   89.9963    8.9693 O.2     1  UNL1       -0.2749
      3 N          62.5846   90.1328   11.3014 N.am    1  UNL1       -0.2761
      4 C          63.6353   91.0417   10.7358 C.3     1  UNL1        0.1148
      5 C          64.7292   91.5643   11.6190 C.3     1  UNL1        0.1123
      6 N          64.7724   91.1781   13.0678 N.pl3   1  UNL1       -0.3057
      7 C          63.7217   90.2692   13.6333 C.3     1  UNL1        0.0927
      8 C          63.7649   89.8830   15.0821 C.3     1  UNL1        0.0232
      9 C          62.6278   89.7466   12.7501 C.3     1  UNL1        0.1131
     10 C          65.8665   91.7008   13.9510 C.ar    1  UNL1        0.0503
     11 C          65.5466   92.1862   15.3337 C.ar    1  UNL1        0.0170
     12 C          66.6406   92.7089   16.2170 C.ar    1  UNL1        0.0332
     13 C          68.0544   92.7461   15.7174 C.ar    1  UNL1        0.1675
     14 F          69.1484   93.2688   16.6005 F       1  UNL1       -0.2018
     15 C          68.3743   92.2607   14.3346 C.ar    1  UNL1        0.1686
     16 F          69.7882   92.2979   13.8350 F       1  UNL1       -0.2018
     17 C          67.2803   91.7380   13.4514 C.ar    1  UNL1        0.0465
     18 C          59.3968   89.5975   11.5827 C.3     1  UNL1        0.0096
     19 C          60.4399   88.7012   10.9837 C.3     1  UNL1        0.0788
     20 C          60.5933   87.2137   10.8673 C.3     1  UNL1        0.0360
     21 C          61.1506   86.6132    9.6107 C.3     1  UNL1        0.1275
     22 N          61.4548   86.1403    8.2202 N.am    1  UNL1       -0.2839
     23 C          62.7372   85.3635    8.2649 C.2     1  UNL1        0.3068
     24 O          63.4127   84.7088    7.0965 O.2     1  UNL1       -0.2524
     25 N          63.2256   85.3562    9.6831 N.am    1  UNL1       -0.2384
     26 C          62.2450   86.1286   10.5149 C.2     1  UNL1        0.2451
     27 O          62.3418   86.3735   11.9916 O.2     1  UNL1       -0.2730
     28 H          60.9087   86.3100    7.4188 H       1  UNL1        0.1513
     29 H          64.0458   84.9210   10.0105 H       1  UNL1        0.1591
     30 C          59.9398   87.2233    8.9692 C.3     1  UNL1        0.0249
     31 C          59.3269   88.2575    8.0721 C.3     1  UNL1        0.0021
     32 C          58.4553   87.2458    8.7553 C.3     1  UNL1        0.0021
@<TRIPOS>BOND
     1    19    18    1
     2    19    20    1
     3    21    20    1
     4    21    30    1
     5    30    31    1
     6    31    32    1
     7    21    22    1
     8    22    23   am
     9    23    24    2
    10    23    25   am
    11    25    26   am
    12    26    27    2
    13    19     1    1
    14     1     2    2
    15     1     3   am
    16     3     4    1
    17     4     5    1
    18     5     6    1
    19     6    10    1
    20    10    11   ar
    21    11    12   ar
    22    12    13   ar
    23    13    14    1
    24    13    15   ar
    25    15    16    1
    26    15    17   ar
    27     6     7    1
    28     7     8    1
    29     7     9    1
    30    26    21    1
    31     9     3    1
    32    32    30    1
    33    17    10   ar
    34    22    28    1
    35    25    29    1
@<TRIPOS>MOLECULE
*****
 32 35 0 0 0
SMALL
GASTEIGER

@<TRIPOS>ATOM
      1 C          63.2764   89.4869   12.6405 C.2     1  UNL1        0.2253
      2 O          62.5345   90.3824   11.6931 O.2     1  UNL1       -0.2749
      3 N          63.1861   87.9971   12.4905 N.am    1  UNL1       -0.2761
      4 C          62.3539   87.4029   11.3931 C.3     1  UNL1        0.1148
      5 C          62.2636   85.9132   11.2432 C.3     1  UNL1        0.1123
      6 N          63.0056   85.0177   12.1906 N.pl3   1  UNL1       -0.3057
      7 C          63.8378   85.6119   13.2880 C.3     1  UNL1        0.0927
      8 C          64.5797   84.7164   14.2354 C.3     1  UNL1        0.0232
      9 C          63.9280   87.1016   13.4379 C.3     1  UNL1        0.1131
     10 C          62.9153   83.5279   12.0406 C.ar    1  UNL1        0.0503
     11 C          63.4837   82.8608   10.8233 C.ar    1  UNL1        0.0170
     12 C          63.3934   81.3710   10.6733 C.ar    1  UNL1        0.0332
     13 C          62.7346   80.5484   11.7407 C.ar    1  UNL1        0.1675
     14 F          62.6443   79.0586   11.5907 F       1  UNL1       -0.2018
     15 C          62.1661   81.2155   12.9580 C.ar    1  UNL1        0.1686
     16 F          61.5073   80.3928   14.0253 F       1  UNL1       -0.2018
     17 C          62.2565   82.7052   13.1079 C.ar    1  UNL1        0.0465
     18 C          64.4466   88.9477   14.6604 C.3     1  UNL1        0.0096
     19 C          64.1086   90.0811   13.7379 C.3     1  UNL1        0.0788
     20 C          64.4269   91.5470   13.7280 C.3     1  UNL1        0.0360
     21 C          65.6682   92.0495   14.4038 C.3     1  UNL1        0.1275
     22 N          66.7392   92.5228   15.3412 N.am    1  UNL1       -0.2839
     23 C          67.9561   92.8498   14.5275 C.2     1  UNL1        0.3068
     24 O          69.2626   93.3587   15.0606 O.2     1  UNL1       -0.2524
     25 N          67.6373   92.5785   13.0871 N.am    1  UNL1       -0.2384
     26 C          66.2232   92.0839   13.0107 C.2     1  UNL1        0.2451
     27 O          65.4925   91.6924   11.7606 O.2     1  UNL1       -0.2730
     28 H          66.6577   92.6046   16.3189 H       1  UNL1        0.1513
     29 H          68.2488   92.7032   12.3257 H       1  UNL1        0.1591
     30 C          64.8537   91.9100   15.6556 C.3     1  UNL1        0.0249
     31 C          64.5479   92.3368   17.0608 C.3     1  UNL1        0.0021
     32 C          63.7488   91.2417   16.4188 C.3     1  UNL1        0.0021
@<TRIPOS>BOND
     1    19    18    1
     2    19    20    1
     3    21    20    1
     4    21    30    1
     5    30    31    1
     6    31    32    1
     7    21    22    1
     8    22    23   am
     9    23    24    2
    10    23    25   am
    11    25    26   am
    12    26    27    2
    13    19     1    1
    14     1     2    2
    15     1     3   am
    16     3     4    1
    17     4     5    1
    18     5     6    1
    19     6    10    1
    20    10    11   ar
    21    11    12   ar
    22    12    13   ar
    23    13    14    1
    24    13    15   ar
    25    15    16    1
    26    15    17   ar
    27     6     7    1
    28     7     8    1
    29     7     9    1
    30    26    21    1
    31     9     3    1
    32    32    30    1
    33    17    10   ar
    34    22    28    1
    35    25    29    1
@<TRIPOS>MOLECULE
*****
 32 35 0 0 0
SMALL
GASTEIGER

@<TRIPOS>ATOM
      1 C          62.0296   88.6087   10.6060 C.2     1  UNL1        0.2253
      2 O          61.4348   89.1104    9.3236 O.2     1  UNL1       -0.2749
      3 N          62.9650   89.4805   11.3904 N.am    1  UNL1       -0.2761
      4 C          63.3055   90.8538   10.8924 C.3     1  UNL1        0.1148
      5 C          64.2409   91.7254   11.6768 C.3     1  UNL1        0.1123
      6 N          64.8357   91.2237   12.9592 N.pl3   1  UNL1       -0.3057
      7 C          64.4952   89.8504   13.4572 C.3     1  UNL1        0.0927
      8 C          65.0901   89.3488   14.7395 C.3     1  UNL1        0.0232
      9 C          63.5599   88.9788   12.6728 C.3     1  UNL1        0.1131
     10 C          65.7711   92.0955   13.7436 C.ar    1  UNL1        0.0503
     11 C          66.0401   93.5012   13.2948 C.ar    1  UNL1        0.0170
     12 C          66.9755   94.3730   14.0792 C.ar    1  UNL1        0.0332
     13 C          67.6419   93.8388   15.3124 C.ar    1  UNL1        0.1675
     14 F          68.5772   94.7105   16.0967 F       1  UNL1       -0.2018
     15 C          67.3729   92.4330   15.7611 C.ar    1  UNL1        0.1686
     16 F          68.0393   91.8988   16.9942 F       1  UNL1       -0.2018
     17 C          66.4375   91.5613   14.9767 C.ar    1  UNL1        0.0465
     18 C          60.1947   87.1284   11.0321 C.3     1  UNL1        0.0096
     19 C          61.6891   87.2354   11.1040 C.3     1  UNL1        0.0788
     20 C          62.7807   86.3042   11.5414 C.3     1  UNL1        0.0360
     21 C          62.6566   84.8311   11.2868 C.3     1  UNL1        0.1275
     22 N          62.5113   83.4453   10.7318 N.am    1  UNL1       -0.2839
     23 C          62.5491   82.4801   11.8794 C.2     1  UNL1        0.3068
     24 O          62.4378   80.9874   11.7801 O.2     1  UNL1       -0.2524
     25 N          62.7178   83.2693   13.1436 N.am    1  UNL1       -0.2384
     26 C          62.7842   84.7225   12.7774 C.2     1  UNL1        0.2451
     27 O          62.9493   85.8661   13.7339 O.2     1  UNL1       -0.2730
     28 H          62.4091   83.2104    9.7812 H       1  UNL1        0.1513
     29 H          62.7749   82.8988   14.0540 H       1  UNL1        0.1591
     30 C          62.5549   85.2477    9.8494 C.3     1  UNL1        0.0249
     31 C          61.7210   85.5372    8.6367 C.3     1  UNL1        0.0021
     32 C          63.2128   85.6798    8.5725 C.3     1  UNL1        0.0021
@<TRIPOS>BOND
     1    19    18    1
     2    19    20    1
     3    21    20    1
     4    21    30    1
     5    30    31    1
     6    31    32    1
     7    21    22    1
     8    22    23   am
     9    23    24    2
    10    23    25   am
    11    25    26   am
    12    26    27    2
    13    19     1    1
    14     1     2    2
    15     1     3   am
    16     3     4    1
    17     4     5    1
    18     5     6    1
    19     6    10    1
    20    10    11   ar
    21    11    12   ar
    22    12    13   ar
    23    13    14    1
    24    13    15   ar
    25    15    16    1
    26    15    17   ar
    27     6     7    1
    28     7     8    1
    29     7     9    1
    30    26    21    1
    31     9     3    1
    32    32    30    1
    33    17    10   ar
    34    22    28    1
    35    25    29    1
@<TRIPOS>MOLECULE
*****
 32 35 0 0 0
SMALL
GASTEIGER

@<TRIPOS>ATOM
      1 C          63.0442   89.9383   11.5416 C.2     1  UNL1        0.2253
      2 O          62.2422   90.5336   10.4225 O.2     1  UNL1       -0.2749
      3 N          62.9394   88.4724   11.8422 N.am    1  UNL1       -0.2761
      4 C          62.0325   87.6019   11.0238 C.3     1  UNL1        0.1148
      5 C          61.9277   86.1362   11.3244 C.3     1  UNL1        0.1123
      6 N          62.7297   85.5408   12.4435 N.pl3   1  UNL1       -0.3057
      7 C          63.6366   86.4113   13.2620 C.3     1  UNL1        0.0927
      8 C          64.4386   85.8160   14.3811 C.3     1  UNL1        0.0232
      9 C          63.7414   87.8771   12.9613 C.3     1  UNL1        0.1131
     10 C          62.6249   84.0750   12.7441 C.ar    1  UNL1        0.0503
     11 C          62.2927   83.6161   14.1330 C.ar    1  UNL1        0.0170
     12 C          62.1879   82.1502   14.4336 C.ar    1  UNL1        0.0332
     13 C          62.4152   81.1433   13.3453 C.ar    1  UNL1        0.1675
     14 F          62.3104   79.6775   13.6458 F       1  UNL1       -0.2018
     15 C          62.7475   81.6022   11.9564 C.ar    1  UNL1        0.1686
     16 F          62.9749   80.5953   10.8680 F       1  UNL1       -0.2018
     17 C          62.8523   83.0680   11.6558 C.ar    1  UNL1        0.0465
     18 C          64.0562   92.1085   11.6188 C.3     1  UNL1        0.0096
     19 C          63.9510   90.8088   12.3601 C.3     1  UNL1        0.0788
     20 C          64.5348   90.2892   13.6404 C.3     1  UNL1        0.0360
     21 C          64.8628   91.2383   14.7547 C.3     1  UNL1        0.1275
     22 N          65.4436   92.2520   15.6953 N.am    1  UNL1       -0.2839
     23 C          64.5240   92.3707   16.8745 C.2     1  UNL1        0.3068
     24 O          64.7194   93.2716   18.0578 O.2     1  UNL1       -0.2524
     25 N          63.3749   91.4302   16.6626 N.am    1  UNL1       -0.2384
     26 C          63.5842   90.7303   15.3525 C.2     1  UNL1        0.2451
     27 O          62.6747   89.7029   14.7465 O.2     1  UNL1       -0.2730
     28 H          66.2813   92.7518   15.5622 H       1  UNL1        0.1513
     29 H          62.6164   91.2959   17.2758 H       1  UNL1        0.1591
     30 C          66.0727   91.5478   13.9240 C.3     1  UNL1        0.0249
     31 C          66.7305   92.3354   12.8299 C.3     1  UNL1        0.0021
     32 C          67.5107   91.2963   13.5792 C.3     1  UNL1        0.0021
@<TRIPOS>BOND
     1    19    18    1
     2    19    20    1
     3    21    20    1
     4    21    30    1
     5    30    31    1
     6    31    32    1
     7    21    22    1
     8    22    23   am
     9    23    24    2
    10    23    25   am
    11    25    26   am
    12    26    27    2
    13    19     1    1
    14     1     2    2
    15     1     3   am
    16     3     4    1
    17     4     5    1
    18     5     6    1
    19     6    10    1
    20    10    11   ar
    21    11    12   ar
    22    12    13   ar
    23    13    14    1
    24    13    15   ar
    25    15    16    1
    26    15    17   ar
    27     6     7    1
    28     7     8    1
    29     7     9    1
    30    26    21    1
    31     9     3    1
    32    32    30    1
    33    17    10   ar
    34    22    28    1
    35    25    29    1
