@<TRIPOS>MOLECULE
*****
 50 53 0 0 0
SMALL
GASTEIGER

@<TRIPOS>ATOM
      1 C          62.6323   85.9076   11.1142 C.3     1  UNL1        0.0777
      2 C          61.1080   87.9989   11.3437 C.2     1  UNL1        0.2403
      3 O          60.0789   87.3446   10.4703 O.2     1  UNL1       -0.2733
      4 N          62.3847   87.2804   11.6657 N.am    1  UNL1       -0.3042
      5 H          63.0601   87.7098   12.2389 H       1  UNL1        0.1494
      6 C          60.8603   89.3717   11.8951 C.3     1  UNL1        0.1496
      7 N          64.0059   91.7605   11.5089 N.am    1  UNL1       -0.2567
      8 C          64.8366   92.3745   10.4213 C.3     1  UNL1        0.1168
      9 C          62.8485   90.8731   11.1582 C.2     1  UNL1        0.3046
     10 O          62.5219   90.5997    9.7200 O.2     1  UNL1       -0.2526
     11 N          62.0177   90.2591   12.2458 N.am    1  UNL1       -0.2824
     12 H          62.2321   90.4386   13.1897 H       1  UNL1        0.1514
     13 C          64.3325   92.0340   12.9471 C.3     1  UNL1        0.1413
     14 C          67.7420   92.5687   14.7233 C.ar    1  UNL1        0.0875
     15 N          66.2430   92.6239   14.7211 N.ar    1  UNL1       -0.2453
     16 C          65.7634   92.1432   13.3835 C.ar    1  UNL1        0.0858
     17 C          66.9660   91.7908   12.5591 C.ar    1  UNL1        0.0530
     18 S          68.1889   92.0538   13.3872 S.2     1  UNL1       -0.0705
     19 C          69.0444   94.3925   16.0374 C.3     1  UNL1        0.0069
     20 C          68.6369   92.9597   15.8617 C.3     1  UNL1        0.0465
     21 C          69.1244   91.9179   16.8245 C.3     1  UNL1        0.0069
     22 C          59.4554   89.8571   12.0960 C.3     1  UNL1        0.0270
     23 C          58.4938   89.0513   12.9182 C.3     1  UNL1        0.0022
     24 C          59.0119   91.1484   11.4745 C.3     1  UNL1        0.0022
     25 C          62.2245   84.6980   11.9020 C.3     1  UNL1        0.0415
     26 C          62.1240   84.7754   13.3966 C.3     1  UNL1        0.0988
     27 N          63.3478   84.5803   14.2418 N.am    1  UNL1       -0.2418
     28 C          63.5815   83.2691   14.9318 C.2     1  UNL1        0.4055
     29 O          64.8053   83.0740   15.7769 O.2     1  UNL1       -0.2262
     30 C          64.3379   85.6964   14.3969 C.3     1  UNL1        0.1234
     31 C          63.9695   86.9226   15.1784 C.ar    1  UNL1       -0.0022
     32 C          63.3325   86.7875   16.5297 C.ar    1  UNL1       -0.0026
     33 C          62.9641   88.0137   17.3111 C.ar    1  UNL1       -0.0003
     34 C          63.2328   89.3750   16.7413 C.ar    1  UNL1       -0.0000
     35 C          63.8698   89.5101   15.3901 C.ar    1  UNL1       -0.0003
     36 C          64.2381   88.2839   14.6086 C.ar    1  UNL1       -0.0026
     37 O          62.5914   82.1530   14.7767 O.3     1  UNL1       -0.4289
     38 C          62.8300   81.0744   13.7621 C.3     1  UNL1        0.2447
     39 C          63.3798   81.4240   12.4110 C.ar    1  UNL1        0.0714
     40 C          64.5723   82.2932   12.1423 C.ar    1  UNL1        0.1053
     41 N          64.7631   82.3722   10.6566 N.ar    1  UNL1       -0.2350
     42 C          63.6884   81.5517   10.0070 C.ar    1  UNL1        0.1343
     43 S          62.8335   80.9657   11.0912 S.2     1  UNL1       -0.0652
     44 C          63.2877   85.7443    9.7748 C.3     1  UNL1        0.0459
     45 C          62.4544   85.4492    8.5630 C.ar    1  UNL1       -0.0205
     46 C          61.0354   85.9303    8.4934 C.ar    1  UNL1       -0.0042
     47 C          60.2020   85.6352    7.2815 C.ar    1  UNL1       -0.0003
     48 C          60.7878   84.8590    6.1394 C.ar    1  UNL1       -0.0000
     49 C          62.2069   84.3779    6.2091 C.ar    1  UNL1       -0.0003
     50 C          63.0402   84.6730    7.4209 C.ar    1  UNL1       -0.0042
@<TRIPOS>BOND
     1    19    20    1
     2    20    21    1
     3    20    14    1
     4    14    15   ar
     5    15    16   ar
     6    16    13    1
     7    13     7    1
     8     7     8    1
     9     7     9   am
    10     9    10    2
    11     9    11   am
    12     6    11    1
    13     6     2    1
    14     2     3    2
    15     2     4   am
    16     4     1    1
    17     1    25    1
    18    25    26    1
    19    26    27    1
    20    27    30    1
    21    30    31    1
    22    31    32   ar
    23    32    33   ar
    24    33    34   ar
    25    34    35   ar
    26    35    36   ar
    27    27    28   am
    28    28    29    2
    29    28    37    1
    30    37    38    1
    31    38    39    1
    32    39    40   ar
    33    40    41   ar
    34    41    42   ar
    35    42    43   ar
    36     1    44    1
    37    44    45    1
    38    45    46   ar
    39    46    47   ar
    40    47    48   ar
    41    48    49   ar
    42    49    50   ar
    43     6    22    1
    44    22    23    1
    45    22    24    1
    46    16    17   ar
    47    17    18   ar
    48    18    14   ar
    49    36    31   ar
    50    43    39   ar
    51    50    45   ar
    52    11    12    1
    53     4     5    1
@<TRIPOS>MOLECULE
*****
 50 53 0 0 0
SMALL
GASTEIGER

@<TRIPOS>ATOM
      1 C          62.4971   88.0673   11.2555 C.3     1  UNL1        0.0777
      2 C          60.7533   88.4945    9.3776 C.2     1  UNL1        0.2403
      3 O          60.0046   89.4254   10.2846 O.2     1  UNL1       -0.2733
      4 N          61.9996   87.8155    9.8630 N.am    1  UNL1       -0.3042
      5 H          62.4910   87.2045    9.2677 H       1  UNL1        0.1494
      6 C          60.2558   88.2426    7.9851 C.3     1  UNL1        0.1496
      7 N          58.9986   90.9667    5.3872 N.am    1  UNL1       -0.2567
      8 C          57.7097   91.4795    4.8164 C.3     1  UNL1        0.1168
      9 C          58.9827   89.8610    6.4008 C.2     1  UNL1        0.3046
     10 O          57.6780   89.2682    6.8436 O.2     1  UNL1       -0.2526
     11 N          60.2716   89.3482    6.9716 N.am    1  UNL1       -0.2824
     12 H          61.1280   89.7374    6.6809 H       1  UNL1        0.1514
     13 C          60.3034   91.5595    4.9444 C.3     1  UNL1        0.1413
     14 C          59.8667   93.2818    1.4935 C.ar    1  UNL1        0.0875
     15 N          59.2995   92.7785    2.7877 N.ar    1  UNL1       -0.2453
     16 C          60.4214   92.1816    3.5846 C.ar    1  UNL1        0.0858
     17 C          61.6821   92.3161    2.7830 C.ar    1  UNL1        0.0530
     18 S          61.3393   92.9961    1.4906 S.2     1  UNL1       -0.0705
     19 C          58.1812   93.1483   -0.4790 C.3     1  UNL1        0.0069
     20 C          59.0967   93.9530    0.3952 C.3     1  UNL1        0.0465
     21 C          59.2422   95.4290    0.1709 C.3     1  UNL1        0.0069
     22 C          59.7424   86.8852    7.6061 C.3     1  UNL1        0.0270
     23 C          58.2905   86.5549    7.7874 C.3     1  UNL1        0.0022
     24 C          60.6810   85.8578    7.0459 C.3     1  UNL1        0.0022
     25 C          63.1055   89.3927   11.6063 C.3     1  UNL1        0.0415
     26 C          62.7477   90.0634   12.8994 C.3     1  UNL1        0.0988
     27 N          63.8271   90.6238   13.7775 N.am    1  UNL1       -0.2418
     28 C          64.8588   91.5474   13.2009 C.2     1  UNL1        0.4055
     29 O          65.9382   92.1078   14.0789 O.2     1  UNL1       -0.2262
     30 C          63.8747   90.2606   15.2320 C.3     1  UNL1        0.1234
     31 C          63.7702   88.8238   15.6501 C.ar    1  UNL1       -0.0022
     32 C          62.9654   88.4513   16.8598 C.ar    1  UNL1       -0.0026
     33 C          62.8609   87.0145   17.2778 C.ar    1  UNL1       -0.0003
     34 C          63.5614   85.9503   16.4861 C.ar    1  UNL1       -0.0000
     35 C          64.3662   86.3228   15.2764 C.ar    1  UNL1       -0.0003
     36 C          64.4707   87.7595   14.8584 C.ar    1  UNL1       -0.0026
     37 O          64.8111   91.9107   11.7463 O.3     1  UNL1       -0.4289
     38 C          65.3036   93.2527   11.2918 C.3     1  UNL1        0.2447
     39 C          66.5731   93.3569   10.4997 C.ar    1  UNL1        0.0714
     40 C          67.7091   92.3777   10.5220 C.ar    1  UNL1        0.1053
     41 N          68.7676   92.8742    9.5823 N.ar    1  UNL1       -0.2350
     42 C          68.2857   94.1604    8.9792 C.ar    1  UNL1        0.1343
     43 S          66.9295   94.4587    9.5462 S.2     1  UNL1       -0.0652
     44 C          62.3862   86.9937   12.2972 C.3     1  UNL1        0.0459
     45 C          62.6883   85.5684   11.9404 C.ar    1  UNL1       -0.0205
     46 C          62.6865   84.5122   13.0054 C.ar    1  UNL1       -0.0042
     47 C          62.9886   83.0868   12.6486 C.ar    1  UNL1       -0.0003
     48 C          63.2924   82.7178   11.2268 C.ar    1  UNL1       -0.0000
     49 C          63.2942   83.7742   10.1618 C.ar    1  UNL1       -0.0003
     50 C          62.9921   85.1994   10.5186 C.ar    1  UNL1       -0.0042
@<TRIPOS>BOND
     1    19    20    1
     2    20    21    1
     3    20    14    1
     4    14    15   ar
     5    15    16   ar
     6    16    13    1
     7    13     7    1
     8     7     8    1
     9     7     9   am
    10     9    10    2
    11     9    11   am
    12     6    11    1
    13     6     2    1
    14     2     3    2
    15     2     4   am
    16     4     1    1
    17     1    25    1
    18    25    26    1
    19    26    27    1
    20    27    30    1
    21    30    31    1
    22    31    32   ar
    23    32    33   ar
    24    33    34   ar
    25    34    35   ar
    26    35    36   ar
    27    27    28   am
    28    28    29    2
    29    28    37    1
    30    37    38    1
    31    38    39    1
    32    39    40   ar
    33    40    41   ar
    34    41    42   ar
    35    42    43   ar
    36     1    44    1
    37    44    45    1
    38    45    46   ar
    39    46    47   ar
    40    47    48   ar
    41    48    49   ar
    42    49    50   ar
    43     6    22    1
    44    22    23    1
    45    22    24    1
    46    16    17   ar
    47    17    18   ar
    48    18    14   ar
    49    36    31   ar
    50    43    39   ar
    51    50    45   ar
    52    11    12    1
    53     4     5    1
@<TRIPOS>MOLECULE
*****
 50 53 0 0 0
SMALL
GASTEIGER

@<TRIPOS>ATOM
      1 C          63.2670   87.0129   13.0211 C.3     1  UNL1        0.0777
      2 C          63.1691   89.6053   12.8798 C.2     1  UNL1        0.2403
      3 O          62.3841   89.6452   14.1573 O.2     1  UNL1       -0.2733
      4 N          63.6106   88.2892   12.3117 N.am    1  UNL1       -0.3042
      5 H          64.1259   88.2629   11.4732 H       1  UNL1        0.1494
      6 C          63.5127   90.8815   12.1704 C.3     1  UNL1        0.1496
      7 N          66.3724   92.3832   14.4764 N.am    1  UNL1       -0.2567
      8 C          67.3553   91.9201   15.5105 C.3     1  UNL1        0.1168
      9 C          65.4340   91.4008   13.8404 C.2     1  UNL1        0.3046
     10 O          65.4786   89.9553   14.2386 O.2     1  UNL1       -0.2526
     11 N          64.4511   91.8639   12.8063 N.am    1  UNL1       -0.2824
     12 H          64.4218   92.8126   12.5450 H       1  UNL1        0.1514
     13 C          66.3278   93.8287   14.0782 C.3     1  UNL1        0.1413
     14 C          67.2009   94.1586   10.3106 C.ar    1  UNL1        0.0875
     15 N          67.2012   93.3791   11.5922 N.ar    1  UNL1       -0.2453
     16 C          66.5417   94.2189   12.6458 C.ar    1  UNL1        0.0858
     17 C          66.1338   95.5175   12.0153 C.ar    1  UNL1        0.0530
     18 S          66.5412   95.4802   10.5721 S.2     1  UNL1       -0.0705
     19 C          68.5318   92.4126    8.9215 C.3     1  UNL1        0.0069
     20 C          67.7617   93.6976    8.9981 C.3     1  UNL1        0.0465
     21 C          67.5524   94.5214    7.7622 C.3     1  UNL1        0.0069
     22 C          62.9180   91.1754   10.8251 C.3     1  UNL1        0.0270
     23 C          61.5353   90.6963   10.4955 C.3     1  UNL1        0.0022
     24 C          63.7060   91.9484    9.8094 C.3     1  UNL1        0.0022
     25 C          62.0751   86.2118   12.5883 C.3     1  UNL1        0.0415
     26 C          62.1386   85.3903   11.3348 C.3     1  UNL1        0.0988
     27 N          63.1559   84.2955   11.2063 N.am    1  UNL1       -0.2418
     28 C          63.6899   83.9228    9.8550 C.2     1  UNL1        0.4055
     29 O          64.7072   82.8280    9.7265 O.2     1  UNL1       -0.2262
     30 C          63.6392   83.5735   12.4290 C.3     1  UNL1        0.1234
     31 C          62.9462   82.3238   12.8851 C.ar    1  UNL1       -0.0022
     32 C          61.9738   82.3792   14.0259 C.ar    1  UNL1       -0.0026
     33 C          61.2808   81.1295   14.4820 C.ar    1  UNL1       -0.0003
     34 C          61.5602   79.8245   13.7973 C.ar    1  UNL1       -0.0000
     35 C          62.5325   79.7691   12.6565 C.ar    1  UNL1       -0.0003
     36 C          63.2255   81.0188   12.2005 C.ar    1  UNL1       -0.0026
     37 O          63.2065   84.6448    8.6323 O.3     1  UNL1       -0.4289
     38 C          62.7239   86.0611    8.7393 C.3     1  UNL1        0.2447
     39 C          61.3091   86.4009    8.3750 C.ar    1  UNL1        0.0714
     40 C          60.4506   85.6631    7.3909 C.ar    1  UNL1        0.1053
     41 N          59.1153   86.3444    7.3386 N.ar    1  UNL1       -0.2350
     42 C          59.1485   87.5033    8.2904 C.ar    1  UNL1        0.1343
     43 S          60.5044   87.5382    8.9310 S.2     1  UNL1       -0.0652
     44 C          64.1154   86.5379   14.1633 C.3     1  UNL1        0.0459
     45 C          63.6119   86.6559   15.5713 C.ar    1  UNL1       -0.0205
     46 C          63.1652   85.4311   16.3131 C.ar    1  UNL1       -0.0042
     47 C          62.6617   85.5491   17.7212 C.ar    1  UNL1       -0.0003
     48 C          62.6049   86.8919   18.3874 C.ar    1  UNL1       -0.0000
     49 C          63.0517   88.1167   17.6455 C.ar    1  UNL1       -0.0003
     50 C          63.5552   87.9987   16.2375 C.ar    1  UNL1       -0.0042
@<TRIPOS>BOND
     1    19    20    1
     2    20    21    1
     3    20    14    1
     4    14    15   ar
     5    15    16   ar
     6    16    13    1
     7    13     7    1
     8     7     8    1
     9     7     9   am
    10     9    10    2
    11     9    11   am
    12     6    11    1
    13     6     2    1
    14     2     3    2
    15     2     4   am
    16     4     1    1
    17     1    25    1
    18    25    26    1
    19    26    27    1
    20    27    30    1
    21    30    31    1
    22    31    32   ar
    23    32    33   ar
    24    33    34   ar
    25    34    35   ar
    26    35    36   ar
    27    27    28   am
    28    28    29    2
    29    28    37    1
    30    37    38    1
    31    38    39    1
    32    39    40   ar
    33    40    41   ar
    34    41    42   ar
    35    42    43   ar
    36     1    44    1
    37    44    45    1
    38    45    46   ar
    39    46    47   ar
    40    47    48   ar
    41    48    49   ar
    42    49    50   ar
    43     6    22    1
    44    22    23    1
    45    22    24    1
    46    16    17   ar
    47    17    18   ar
    48    18    14   ar
    49    36    31   ar
    50    43    39   ar
    51    50    45   ar
    52    11    12    1
    53     4     5    1
@<TRIPOS>MOLECULE
*****
 50 53 0 0 0
SMALL
GASTEIGER

@<TRIPOS>ATOM
      1 C          62.4570   86.2983   11.3985 C.3     1  UNL1        0.0777
      2 C          63.3389   88.5666   12.3077 C.2     1  UNL1        0.2403
      3 O          63.8305   87.8788   13.5468 O.2     1  UNL1       -0.2733
      4 N          62.6522   87.7763   11.2336 N.am    1  UNL1       -0.3042
      5 H          62.3295   88.2278   10.4204 H       1  UNL1        0.1494
      6 C          63.5340   90.0447   12.1429 C.3     1  UNL1        0.1496
      7 N          65.5147   91.8478   15.0713 N.am    1  UNL1       -0.2567
      8 C          65.3061   92.2505   16.5011 C.3     1  UNL1        0.1168
      9 C          64.4200   91.1476   14.3220 C.2     1  UNL1        0.3046
     10 O          63.1168   90.8501   15.0025 O.2     1  UNL1       -0.2526
     11 N          64.6286   90.7449   12.8922 N.am    1  UNL1       -0.2824
     12 H          65.4840   90.9402   12.4456 H       1  UNL1        0.1514
     13 C          66.8179   92.1453   14.3909 C.3     1  UNL1        0.1413
     14 C          67.2701   93.4495   10.7631 C.ar    1  UNL1        0.0875
     15 N          67.5186   92.4206   11.8260 N.ar    1  UNL1       -0.2453
     16 C          66.8302   92.8734   13.0795 C.ar    1  UNL1        0.0858
     17 C          66.1562   94.1821   12.7913 C.ar    1  UNL1        0.0530
     18 S          66.4280   94.5382   11.3597 S.2     1  UNL1       -0.0705
     19 C          67.4212   94.4930    8.3887 C.3     1  UNL1        0.0069
     20 C          67.7749   93.3986    9.3516 C.3     1  UNL1        0.0465
     21 C          68.6334   92.2534    8.9030 C.3     1  UNL1        0.0069
     22 C          62.6346   90.8226   11.2287 C.3     1  UNL1        0.0270
     23 C          61.1520   90.8221   11.4563 C.3     1  UNL1        0.0022
     24 C          63.2177   91.6011   10.0867 C.3     1  UNL1        0.0022
     25 C          63.1032   85.5798   12.5457 C.3     1  UNL1        0.0415
     26 C          62.3068   84.6102   13.3676 C.3     1  UNL1        0.0988
     27 N          62.9564   83.3670   13.8993 N.am    1  UNL1       -0.2418
     28 C          64.2891   83.4507   14.5827 C.2     1  UNL1        0.4055
     29 O          64.9387   82.2077   15.1144 O.2     1  UNL1       -0.2262
     30 C          62.2734   82.0402   13.7476 C.3     1  UNL1        0.1234
     31 C          62.5313   81.1983   12.5332 C.ar    1  UNL1       -0.0022
     32 C          62.9735   81.8436   11.2534 C.ar    1  UNL1       -0.0026
     33 C          63.2314   81.0018   10.0390 C.ar    1  UNL1       -0.0003
     34 C          63.0471   79.5146   10.1045 C.ar    1  UNL1       -0.0000
     35 C          62.6049   78.8693   11.3843 C.ar    1  UNL1       -0.0003
     36 C          62.3470   79.7111   12.5987 C.ar    1  UNL1       -0.0026
     37 O          64.9721   84.7776   14.7343 O.3     1  UNL1       -0.4289
     38 C          64.8901   85.5189   16.0358 C.3     1  UNL1        0.2447
     39 C          63.5869   86.1152   16.4784 C.ar    1  UNL1        0.0714
     40 C          62.3153   85.3625   16.7363 C.ar    1  UNL1        0.1053
     41 N          61.2690   86.3510   17.1582 N.ar    1  UNL1       -0.2350
     42 C          61.8938   87.7147   17.1610 C.ar    1  UNL1        0.1343
     43 S          63.3264   87.5690   16.7409 S.2     1  UNL1       -0.0652
     44 C          61.6156   85.5386   10.4160 C.3     1  UNL1        0.0459
     45 C          60.7812   86.2788    9.4132 C.ar    1  UNL1       -0.0205
     46 C          60.1868   87.6095    9.7682 C.ar    1  UNL1       -0.0042
     47 C          59.3524   88.3498    8.7653 C.ar    1  UNL1       -0.0003
     48 C          59.1124   87.7594    7.4074 C.ar    1  UNL1       -0.0000
     49 C          59.7068   86.4287    7.0524 C.ar    1  UNL1       -0.0003
     50 C          60.5412   85.6884    8.0553 C.ar    1  UNL1       -0.0042
@<TRIPOS>BOND
     1    19    20    1
     2    20    21    1
     3    20    14    1
     4    14    15   ar
     5    15    16   ar
     6    16    13    1
     7    13     7    1
     8     7     8    1
     9     7     9   am
    10     9    10    2
    11     9    11   am
    12     6    11    1
    13     6     2    1
    14     2     3    2
    15     2     4   am
    16     4     1    1
    17     1    25    1
    18    25    26    1
    19    26    27    1
    20    27    30    1
    21    30    31    1
    22    31    32   ar
    23    32    33   ar
    24    33    34   ar
    25    34    35   ar
    26    35    36   ar
    27    27    28   am
    28    28    29    2
    29    28    37    1
    30    37    38    1
    31    38    39    1
    32    39    40   ar
    33    40    41   ar
    34    41    42   ar
    35    42    43   ar
    36     1    44    1
    37    44    45    1
    38    45    46   ar
    39    46    47   ar
    40    47    48   ar
    41    48    49   ar
    42    49    50   ar
    43     6    22    1
    44    22    23    1
    45    22    24    1
    46    16    17   ar
    47    17    18   ar
    48    18    14   ar
    49    36    31   ar
    50    43    39   ar
    51    50    45   ar
    52    11    12    1
    53     4     5    1
@<TRIPOS>MOLECULE
*****
 50 53 0 0 0
SMALL
GASTEIGER

@<TRIPOS>ATOM
      1 C          63.2745   87.0624   13.1238 C.3     1  UNL1        0.0777
      2 C          63.1713   89.6541   12.9742 C.2     1  UNL1        0.2403
      3 O          62.3540   89.6941   14.2313 O.2     1  UNL1       -0.2733
      4 N          63.6316   88.3382   12.4204 N.am    1  UNL1       -0.3042
      5 H          64.1680   88.3120   11.5953 H       1  UNL1        0.1494
      6 C          63.5284   90.9299   12.2708 C.3     1  UNL1        0.1496
      7 N          66.4574   92.3472   14.5429 N.am    1  UNL1       -0.2567
      8 C          67.4412   91.8546   15.5624 C.3     1  UNL1        0.1168
      9 C          65.4848   91.3922   13.9166 C.2     1  UNL1        0.3046
     10 O          65.4960   89.9448   14.3099 O.2     1  UNL1       -0.2526
     11 N          64.5010   91.8848   12.8970 N.am    1  UNL1       -0.2824
     12 H          64.4936   92.8348   12.6389 H       1  UNL1        0.1514
     13 C          66.4461   93.7946   14.1496 C.3     1  UNL1        0.1413
     14 C          67.1828   94.1289   10.3534 C.ar    1  UNL1        0.0875
     15 N          67.2571   93.3609   11.6397 N.ar    1  UNL1       -0.2453
     16 C          66.5973   94.1814   12.7082 C.ar    1  UNL1        0.0858
     17 C          66.1152   95.4564   12.0822 C.ar    1  UNL1        0.0530
     18 S          66.4771   95.4240   10.6268 S.2     1  UNL1       -0.0705
     19 C          67.5098   94.5283    7.8072 C.3     1  UNL1        0.0069
     20 C          67.7199   93.6805    9.0266 C.3     1  UNL1        0.0465
     21 C          68.4672   92.3844    8.9192 C.3     1  UNL1        0.0069
     22 C          62.9129   91.2509   10.9411 C.3     1  UNL1        0.0270
     23 C          63.7208   91.9535    9.8906 C.3     1  UNL1        0.0022
     24 C          61.4893   90.8693   10.6619 C.3     1  UNL1        0.0022
     25 C          62.0743   86.2758   12.6872 C.3     1  UNL1        0.0415
     26 C          62.2042   85.2514   11.5992 C.3     1  UNL1        0.0988
     27 N          62.5740   85.6766   10.2090 N.am    1  UNL1       -0.2418
     28 C          63.2117   84.6963    9.2697 C.2     1  UNL1        0.4055
     29 O          63.5815   85.1214    7.8795 O.2     1  UNL1       -0.2262
     30 C          62.3061   87.0819    9.7583 C.3     1  UNL1        0.1234
     31 C          61.0925   87.3856    8.9305 C.ar    1  UNL1       -0.0022
     32 C          60.2304   86.2671    8.4250 C.ar    1  UNL1       -0.0026
     33 C          59.0169   86.5708    7.5973 C.ar    1  UNL1       -0.0003
     34 C          58.6655   87.9931    7.2752 C.ar    1  UNL1       -0.0000
     35 C          59.5277   89.1116    7.7807 C.ar    1  UNL1       -0.0003
     36 C          60.7412   88.8078    8.6084 C.ar    1  UNL1       -0.0026
     37 O          63.4796   83.2909    9.7205 O.3     1  UNL1       -0.4289
     38 C          64.4379   83.0340   10.8456 C.3     1  UNL1        0.2447
     39 C          63.9476   82.4183   12.1225 C.ar    1  UNL1        0.0714
     40 C          64.2800   82.8824   13.5096 C.ar    1  UNL1        0.1053
     41 N          63.5767   81.9813   14.4809 N.ar    1  UNL1       -0.2350
     42 C          62.8096   80.9603   13.6940 C.ar    1  UNL1        0.1343
     43 S          63.0388   81.2304   12.2365 S.2     1  UNL1       -0.0652
     44 C          64.1177   86.5732   14.2639 C.3     1  UNL1        0.0459
     45 C          63.6259   86.7123   15.6741 C.ar    1  UNL1       -0.0205
     46 C          63.5256   88.0704   16.3029 C.ar    1  UNL1       -0.0042
     47 C          63.0337   88.2095   17.7132 C.ar    1  UNL1       -0.0003
     48 C          62.6423   86.9904   18.4946 C.ar    1  UNL1       -0.0000
     49 C          62.7427   85.6322   17.8658 C.ar    1  UNL1       -0.0003
     50 C          63.2345   85.4932   16.4556 C.ar    1  UNL1       -0.0042
@<TRIPOS>BOND
     1    19    20    1
     2    20    21    1
     3    20    14    1
     4    14    15   ar
     5    15    16   ar
     6    16    13    1
     7    13     7    1
     8     7     8    1
     9     7     9   am
    10     9    10    2
    11     9    11   am
    12     6    11    1
    13     6     2    1
    14     2     3    2
    15     2     4   am
    16     4     1    1
    17     1    25    1
    18    25    26    1
    19    26    27    1
    20    27    30    1
    21    30    31    1
    22    31    32   ar
    23    32    33   ar
    24    33    34   ar
    25    34    35   ar
    26    35    36   ar
    27    27    28   am
    28    28    29    2
    29    28    37    1
    30    37    38    1
    31    38    39    1
    32    39    40   ar
    33    40    41   ar
    34    41    42   ar
    35    42    43   ar
    36     1    44    1
    37    44    45    1
    38    45    46   ar
    39    46    47   ar
    40    47    48   ar
    41    48    49   ar
    42    49    50   ar
    43     6    22    1
    44    22    23    1
    45    22    24    1
    46    16    17   ar
    47    17    18   ar
    48    18    14   ar
    49    36    31   ar
    50    43    39   ar
    51    50    45   ar
    52    11    12    1
    53     4     5    1
@<TRIPOS>MOLECULE
*****
 50 53 0 0 0
SMALL
GASTEIGER

@<TRIPOS>ATOM
      1 C          61.7913   89.1381   11.2354 C.3     1  UNL1        0.0777
      2 C          62.0424   86.5555   11.3658 C.2     1  UNL1        0.2403
      3 O          60.6508   86.4479   11.9151 O.2     1  UNL1       -0.2733
      4 N          62.6126   87.9006   11.0259 N.am    1  UNL1       -0.3042
      5 H          63.5260   87.9712   10.6654 H       1  UNL1        0.1494
      6 C          62.8638   85.3180   11.1563 C.3     1  UNL1        0.1496
      7 N          63.4284   82.2839   13.6514 N.am    1  UNL1       -0.2567
      8 C          63.0463   80.8395   13.7850 C.3     1  UNL1        0.1168
      9 C          62.9550   83.0787   12.4706 C.2     1  UNL1        0.3046
     10 O          62.0998   82.4292   11.4235 O.2     1  UNL1       -0.2526
     11 N          63.3371   84.5231   12.3370 N.am    1  UNL1       -0.2824
     12 H          63.8984   84.9494   13.0243 H       1  UNL1        0.1514
     13 C          64.2836   82.9334   14.6986 C.3     1  UNL1        0.1413
     14 C          63.5805   86.5692   15.8617 C.ar    1  UNL1        0.0875
     15 N          64.2698   85.5943   14.9537 N.ar    1  UNL1       -0.2453
     16 C          63.8377   84.2118   15.3441 C.ar    1  UNL1        0.0858
     17 C          62.8813   84.3324   16.4934 C.ar    1  UNL1        0.0530
     18 S          62.7223   85.7893   16.8133 S.2     1  UNL1       -0.0705
     19 C          64.4844   88.7145   14.7085 C.3     1  UNL1        0.0069
     20 C          63.7240   88.0617   15.8245 C.3     1  UNL1        0.0465
     21 C          63.1073   88.9016   16.9035 C.3     1  UNL1        0.0069
     22 C          63.2119   84.8753    9.7660 C.3     1  UNL1        0.0270
     23 C          64.1419   83.7168    9.5586 C.3     1  UNL1        0.0022
     24 C          62.6300   85.5911    8.5832 C.3     1  UNL1        0.0022
     25 C          62.4082   90.3492   11.8698 C.3     1  UNL1        0.0415
     26 C          63.9001   90.4634   11.9742 C.3     1  UNL1        0.0988
     27 N          64.5555   91.8112   11.9112 N.am    1  UNL1       -0.2418
     28 C          65.0489   92.4648   13.1680 C.2     1  UNL1        0.4055
     29 O          65.7042   93.8125   13.1050 O.2     1  UNL1       -0.2262
     30 C          64.7174   92.5054   10.5915 C.3     1  UNL1        0.1234
     31 C          66.0816   92.9182   10.1235 C.ar    1  UNL1       -0.0022
     32 C          66.3275   94.3303    9.6816 C.ar    1  UNL1       -0.0026
     33 C          67.6915   94.7429    9.2137 C.ar    1  UNL1       -0.0003
     34 C          68.8097   93.7434    9.1876 C.ar    1  UNL1       -0.0000
     35 C          68.5638   92.3313    9.6295 C.ar    1  UNL1       -0.0003
     36 C          67.1997   91.9186   10.0975 C.ar    1  UNL1       -0.0026
     37 O          64.8869   91.7704   14.4878 O.3     1  UNL1       -0.4289
     38 C          65.7925   92.1153   15.6328 C.3     1  UNL1        0.2447
     39 C          67.2282   92.4644   15.3746 C.ar    1  UNL1        0.0714
     40 C          68.1135   91.8430   14.3353 C.ar    1  UNL1        0.1053
     41 N          69.4632   92.4907   14.4287 N.ar    1  UNL1       -0.2350
     42 C          69.4121   93.5124   15.5258 C.ar    1  UNL1        0.1343
     43 S          68.0308   93.4961   16.1103 S.2     1  UNL1       -0.0652
     44 C          60.3529   89.1644   10.8105 C.3     1  UNL1        0.0459
     45 C          59.9743   88.7523    9.4188 C.ar    1  UNL1       -0.0205
     46 C          59.5177   87.3490    9.1503 C.ar    1  UNL1       -0.0042
     47 C          59.1391   86.9368    7.7586 C.ar    1  UNL1       -0.0003
     48 C          59.2172   87.9279    6.6354 C.ar    1  UNL1       -0.0000
     49 C          59.6739   89.3313    6.9040 C.ar    1  UNL1       -0.0003
     50 C          60.0524   89.7434    8.2957 C.ar    1  UNL1       -0.0042
@<TRIPOS>BOND
     1    19    20    1
     2    20    21    1
     3    20    14    1
     4    14    15   ar
     5    15    16   ar
     6    16    13    1
     7    13     7    1
     8     7     8    1
     9     7     9   am
    10     9    10    2
    11     9    11   am
    12     6    11    1
    13     6     2    1
    14     2     3    2
    15     2     4   am
    16     4     1    1
    17     1    25    1
    18    25    26    1
    19    26    27    1
    20    27    30    1
    21    30    31    1
    22    31    32   ar
    23    32    33   ar
    24    33    34   ar
    25    34    35   ar
    26    35    36   ar
    27    27    28   am
    28    28    29    2
    29    28    37    1
    30    37    38    1
    31    38    39    1
    32    39    40   ar
    33    40    41   ar
    34    41    42   ar
    35    42    43   ar
    36     1    44    1
    37    44    45    1
    38    45    46   ar
    39    46    47   ar
    40    47    48   ar
    41    48    49   ar
    42    49    50   ar
    43     6    22    1
    44    22    23    1
    45    22    24    1
    46    16    17   ar
    47    17    18   ar
    48    18    14   ar
    49    36    31   ar
    50    43    39   ar
    51    50    45   ar
    52    11    12    1
    53     4     5    1
@<TRIPOS>MOLECULE
*****
 50 53 0 0 0
SMALL
GASTEIGER

@<TRIPOS>ATOM
      1 C          61.9340   89.0530   11.3375 C.3     1  UNL1        0.0777
      2 C          62.1370   86.4656   11.4574 C.2     1  UNL1        0.2403
      3 O          60.8282   86.3968   12.1868 O.2     1  UNL1       -0.2733
      4 N          62.6900   87.7937   11.0327 N.am    1  UNL1       -0.3042
      5 H          63.5490   87.8390   10.5540 H       1  UNL1        0.1494
      6 C          62.8930   85.2064   11.1527 C.3     1  UNL1        0.1496
      7 N          63.3066   82.0955   13.5820 N.am    1  UNL1       -0.2567
      8 C          62.7350   80.7219   13.7726 C.3     1  UNL1        0.1168
      9 C          62.8140   82.9641   12.4626 C.2     1  UNL1        0.3046
     10 O          61.7499   82.4591   11.5339 O.2     1  UNL1       -0.2526
     11 N          63.3855   84.3378   12.2720 N.am    1  UNL1       -0.2824
     12 H          64.0840   84.6693   12.8815 H       1  UNL1        0.1514
     13 C          64.3707   82.6006   14.5107 C.3     1  UNL1        0.1413
     14 C          63.8046   86.1046   16.0814 C.ar    1  UNL1        0.0875
     15 N          63.4582   84.6499   15.9644 N.ar    1  UNL1       -0.2453
     16 C          64.3693   84.0372   14.9423 C.ar    1  UNL1        0.0858
     17 C          65.2787   85.1133   14.4276 C.ar    1  UNL1        0.0530
     18 S          64.9297   86.3911   15.1316 S.2     1  UNL1       -0.0705
     19 C          62.5283   86.6428   18.2794 C.3     1  UNL1        0.0069
     20 C          63.1421   87.0984   16.9888 C.3     1  UNL1        0.0465
     21 C          63.0935   88.5478   16.6057 C.3     1  UNL1        0.0069
     22 C          63.1564   84.8158    9.7286 C.3     1  UNL1        0.0270
     23 C          62.5369   85.5988    8.6092 C.3     1  UNL1        0.0022
     24 C          64.0393   83.6420    9.4239 C.3     1  UNL1        0.0022
     25 C          62.6154   90.1828   12.0510 C.3     1  UNL1        0.0415
     26 C          63.9116   89.9443   12.7673 C.3     1  UNL1        0.0988
     27 N          64.6883   91.1033   13.3183 N.am    1  UNL1       -0.2418
     28 C          64.9403   92.3108   12.4649 C.2     1  UNL1        0.4055
     29 O          65.7169   93.4698   13.0158 O.2     1  UNL1       -0.2262
     30 C          65.2129   91.0547   14.7227 C.3     1  UNL1        0.1234
     31 C          66.5125   91.7229   15.0614 C.ar    1  UNL1       -0.0022
     32 C          66.5686   92.7388   16.1635 C.ar    1  UNL1       -0.0026
     33 C          67.8682   93.4069   16.5022 C.ar    1  UNL1       -0.0003
     34 C          69.1116   93.0591   15.7387 C.ar    1  UNL1       -0.0000
     35 C          69.0555   92.0433   14.6366 C.ar    1  UNL1       -0.0003
     36 C          67.7560   91.3751   14.2979 C.ar    1  UNL1       -0.0026
     37 O          64.4156   92.3594   11.0604 O.3     1  UNL1       -0.4289
     38 C          64.9839   93.3433   10.0811 C.3     1  UNL1        0.2447
     39 C          66.4644   93.3985    9.8469 C.ar    1  UNL1        0.0714
     40 C          67.2507   94.6150    9.4574 C.ar    1  UNL1        0.1053
     41 N          68.6909   94.2153    9.3309 N.ar    1  UNL1       -0.2350
     42 C          68.7947   92.7516    9.6423 C.ar    1  UNL1        0.1343
     43 S          67.4187   92.2468    9.9612 S.2     1  UNL1       -0.0652
     44 C          60.4966   89.1824   10.9286 C.3     1  UNL1        0.0459
     45 C          60.0593   88.7238    9.5691 C.ar    1  UNL1       -0.0205
     46 C          59.5475   87.3270    9.3774 C.ar    1  UNL1       -0.0042
     47 C          59.1102   86.8683    8.0178 C.ar    1  UNL1       -0.0003
     48 C          59.1848   87.8066    6.8499 C.ar    1  UNL1       -0.0000
     49 C          59.6967   89.2035    7.0416 C.ar    1  UNL1       -0.0003
     50 C          60.1339   89.6621    8.4011 C.ar    1  UNL1       -0.0042
@<TRIPOS>BOND
     1    19    20    1
     2    20    21    1
     3    20    14    1
     4    14    15   ar
     5    15    16   ar
     6    16    13    1
     7    13     7    1
     8     7     8    1
     9     7     9   am
    10     9    10    2
    11     9    11   am
    12     6    11    1
    13     6     2    1
    14     2     3    2
    15     2     4   am
    16     4     1    1
    17     1    25    1
    18    25    26    1
    19    26    27    1
    20    27    30    1
    21    30    31    1
    22    31    32   ar
    23    32    33   ar
    24    33    34   ar
    25    34    35   ar
    26    35    36   ar
    27    27    28   am
    28    28    29    2
    29    28    37    1
    30    37    38    1
    31    38    39    1
    32    39    40   ar
    33    40    41   ar
    34    41    42   ar
    35    42    43   ar
    36     1    44    1
    37    44    45    1
    38    45    46   ar
    39    46    47   ar
    40    47    48   ar
    41    48    49   ar
    42    49    50   ar
    43     6    22    1
    44    22    23    1
    45    22    24    1
    46    16    17   ar
    47    17    18   ar
    48    18    14   ar
    49    36    31   ar
    50    43    39   ar
    51    50    45   ar
    52    11    12    1
    53     4     5    1
@<TRIPOS>MOLECULE
*****
 50 53 0 0 0
SMALL
GASTEIGER

@<TRIPOS>ATOM
      1 C          63.7101   90.0737   13.1585 C.3     1  UNL1        0.0777
      2 C          62.5789   89.2578   10.9665 C.2     1  UNL1        0.2403
      3 O          62.9714   90.5366   10.2880 O.2     1  UNL1       -0.2733
      4 N          62.9483   89.0263   12.4018 N.am    1  UNL1       -0.3042
      5 H          62.6907   88.1870   12.8472 H       1  UNL1        0.1494
      6 C          61.8171   88.2104   10.2099 C.3     1  UNL1        0.1496
      7 N          62.6861   84.8206    8.3378 N.am    1  UNL1       -0.2567
      8 C          62.2506   84.0504    7.1265 C.3     1  UNL1        0.1168
      9 C          62.0338   86.1304    8.6682 C.2     1  UNL1        0.3046
     10 O          60.9462   86.6700    7.7873 O.2     1  UNL1       -0.2526
     11 N          62.4693   86.9006    9.8794 N.am    1  UNL1       -0.2824
     12 H          63.1831   86.5465   10.4576 H       1  UNL1        0.1514
     13 C          63.7737   84.2811    9.2186 C.3     1  UNL1        0.1413
     14 C          62.6625   82.2930   12.3616 C.ar    1  UNL1        0.0875
     15 N          62.8015   83.5829   11.6087 N.ar    1  UNL1       -0.2453
     16 C          63.4460   83.2817   10.2881 C.ar    1  UNL1        0.0858
     17 C          63.7053   81.8056   10.2248 C.ar    1  UNL1        0.0530
     18 S          63.2211   81.1945   11.5063 S.2     1  UNL1       -0.0705
     19 C          61.0973   81.0195   13.9981 C.3     1  UNL1        0.0069
     20 C          62.0691   82.1301   13.7295 C.3     1  UNL1        0.0465
     21 C          62.4475   83.0779   14.8289 C.3     1  UNL1        0.0069
     22 C          60.4031   88.4727    9.7836 C.3     1  UNL1        0.0270
     23 C          59.2633   87.9028   10.5748 C.3     1  UNL1        0.0022
     24 C          60.1289   89.3050    8.5661 C.3     1  UNL1        0.0022
     25 C          63.6640   91.5047   12.7110 C.3     1  UNL1        0.0415
     26 C          64.8406   92.1070   12.0021 C.3     1  UNL1        0.0988
     27 N          66.2257   91.9026   12.5404 N.am    1  UNL1       -0.2418
     28 C          67.4090   92.0046   11.6241 C.2     1  UNL1        0.4055
     29 O          68.7941   91.8002   12.1624 O.2     1  UNL1       -0.2262
     30 C          66.4275   91.5964   13.9948 C.3     1  UNL1        0.1234
     31 C          67.4241   92.3812   14.7953 C.ar    1  UNL1       -0.0022
     32 C          68.4500   91.6667   15.6241 C.ar    1  UNL1       -0.0026
     33 C          69.4465   92.4516   16.4246 C.ar    1  UNL1       -0.0003
     34 C          69.4172   93.9510   16.3963 C.ar    1  UNL1       -0.0000
     35 C          68.3913   94.6656   15.5675 C.ar    1  UNL1       -0.0003
     36 C          67.3948   93.8807   14.7670 C.ar    1  UNL1       -0.0026
     37 O          67.2072   92.3109   10.1696 O.3     1  UNL1       -0.4289
     38 C          67.8437   93.5265    9.5639 C.3     1  UNL1        0.2447
     39 C          67.0756   94.8122    9.4798 C.ar    1  UNL1        0.0714
     40 C          66.9191   95.6674    8.2575 C.ar    1  UNL1        0.1053
     41 N          66.0759   96.8522    8.6256 N.ar    1  UNL1       -0.2350
     42 C          65.7114   96.7292   10.0755 C.ar    1  UNL1        0.1343
     43 S          66.3292   95.4684   10.6034 S.2     1  UNL1       -0.0652
     44 C          64.5181   89.6901   14.3627 C.3     1  UNL1        0.0459
     45 C          64.0783   88.5463   15.2277 C.ar    1  UNL1       -0.0205
     46 C          64.4441   87.1403   14.8549 C.ar    1  UNL1       -0.0042
     47 C          64.0043   85.9964   15.7199 C.ar    1  UNL1       -0.0003
     48 C          63.1986   86.2587   16.9577 C.ar    1  UNL1       -0.0000
     49 C          62.8328   87.6649   17.3305 C.ar    1  UNL1       -0.0003
     50 C          63.2726   88.8087   16.4655 C.ar    1  UNL1       -0.0042
@<TRIPOS>BOND
     1    19    20    1
     2    20    21    1
     3    20    14    1
     4    14    15   ar
     5    15    16   ar
     6    16    13    1
     7    13     7    1
     8     7     8    1
     9     7     9   am
    10     9    10    2
    11     9    11   am
    12     6    11    1
    13     6     2    1
    14     2     3    2
    15     2     4   am
    16     4     1    1
    17     1    25    1
    18    25    26    1
    19    26    27    1
    20    27    30    1
    21    30    31    1
    22    31    32   ar
    23    32    33   ar
    24    33    34   ar
    25    34    35   ar
    26    35    36   ar
    27    27    28   am
    28    28    29    2
    29    28    37    1
    30    37    38    1
    31    38    39    1
    32    39    40   ar
    33    40    41   ar
    34    41    42   ar
    35    42    43   ar
    36     1    44    1
    37    44    45    1
    38    45    46   ar
    39    46    47   ar
    40    47    48   ar
    41    48    49   ar
    42    49    50   ar
    43     6    22    1
    44    22    23    1
    45    22    24    1
    46    16    17   ar
    47    17    18   ar
    48    18    14   ar
    49    36    31   ar
    50    43    39   ar
    51    50    45   ar
    52    11    12    1
    53     4     5    1
@<TRIPOS>MOLECULE
*****
 50 53 0 0 0
SMALL
GASTEIGER

@<TRIPOS>ATOM
      1 C          62.1700   89.7409   10.8230 C.3     1  UNL1        0.0777
      2 C          61.8025   87.2194   11.3297 C.2     1  UNL1        0.2403
      3 O          60.5407   87.5520   12.0695 O.2     1  UNL1       -0.2733
      4 N          62.6171   88.3139   10.7065 N.am    1  UNL1       -0.3042
      5 H          63.4452   88.0956   10.2209 H       1  UNL1        0.1494
      6 C          62.2496   85.7923   11.2132 C.3     1  UNL1        0.1496
      7 N          63.2606   84.1809   14.6962 N.am    1  UNL1       -0.2567
      8 C          64.2981   84.3516   15.7659 C.3     1  UNL1        0.1168
      9 C          63.2739   85.0720   13.4895 C.2     1  UNL1        0.3046
     10 O          64.3246   86.1337   13.3527 O.2     1  UNL1       -0.2526
     11 N          62.2363   84.9013   12.4198 N.am    1  UNL1       -0.2824
     12 H          61.5467   84.2045   12.5096 H       1  UNL1        0.1514
     13 C          62.2099   83.1193   14.8330 C.3     1  UNL1        0.1413
     14 C          62.6137   80.4143   12.0787 C.ar    1  UNL1        0.0875
     15 N          62.7169   81.8369   12.5431 N.ar    1  UNL1       -0.2453
     16 C          62.2679   81.8914   13.9733 C.ar    1  UNL1        0.0858
     17 C          61.8873   80.5025   14.3929 C.ar    1  UNL1        0.0530
     18 S          62.1010   79.5896   13.2220 S.2     1  UNL1       -0.0705
     19 C          62.7142   78.4687   10.3600 C.3     1  UNL1        0.0069
     20 C          62.9621   79.9057   10.7113 C.3     1  UNL1        0.0465
     21 C          63.5583   80.8342    9.6952 C.3     1  UNL1        0.0069
     22 C          62.7099   85.2563    9.8901 C.3     1  UNL1        0.0270
     23 C          62.2666   85.9164    8.6181 C.3     1  UNL1        0.0022
     24 C          63.6135   84.0601    9.8388 C.3     1  UNL1        0.0022
     25 C          63.0513   90.7504   11.4969 C.3     1  UNL1        0.0415
     26 C          63.8905   91.6818   10.6734 C.3     1  UNL1        0.0988
     27 N          65.2036   92.1760   11.2043 N.am    1  UNL1       -0.2418
     28 C          65.4129   92.3067   12.6839 C.2     1  UNL1        0.4055
     29 O          66.7259   92.8009   13.2148 O.2     1  UNL1       -0.2262
     30 C          66.3071   92.5395   10.2557 C.3     1  UNL1        0.1234
     31 C          66.5586   93.9782    9.9136 C.ar    1  UNL1       -0.0022
     32 C          65.9791   95.0650   10.7696 C.ar    1  UNL1       -0.0026
     33 C          66.2306   96.5037   10.4276 C.ar    1  UNL1       -0.0003
     34 C          67.0617   96.8555    9.2294 C.ar    1  UNL1       -0.0000
     35 C          67.6413   95.7686    8.3734 C.ar    1  UNL1       -0.0003
     36 C          67.3897   94.3300    8.7155 C.ar    1  UNL1       -0.0026
     37 O          64.3093   91.9432   13.6325 O.3     1  UNL1       -0.4289
     38 C          64.6367   91.4665   15.0166 C.3     1  UNL1        0.2447
     39 C          64.0769   90.1670   15.5143 C.ar    1  UNL1        0.0714
     40 C          64.2953   88.8182   14.8953 C.ar    1  UNL1        0.1053
     41 N          63.5538   87.8056   15.7168 N.ar    1  UNL1       -0.2350
     42 C          62.8771   88.5286   16.8435 C.ar    1  UNL1        0.1343
     43 S          63.2004   89.9880   16.7183 S.2     1  UNL1       -0.0652
     44 C          60.8414   90.1585   10.2656 C.3     1  UNL1        0.0459
     45 C          60.2058   89.3616    9.1653 C.ar    1  UNL1       -0.0205
     46 C          59.6552   87.9958    9.4502 C.ar    1  UNL1       -0.0042
     47 C          59.0195   87.1987    8.3499 C.ar    1  UNL1       -0.0003
     48 C          58.9344   87.7676    6.9646 C.ar    1  UNL1       -0.0000
     49 C          59.4851   89.1336    6.6796 C.ar    1  UNL1       -0.0003
     50 C          60.1207   89.9305    7.7799 C.ar    1  UNL1       -0.0042
@<TRIPOS>BOND
     1    19    20    1
     2    20    21    1
     3    20    14    1
     4    14    15   ar
     5    15    16   ar
     6    16    13    1
     7    13     7    1
     8     7     8    1
     9     7     9   am
    10     9    10    2
    11     9    11   am
    12     6    11    1
    13     6     2    1
    14     2     3    2
    15     2     4   am
    16     4     1    1
    17     1    25    1
    18    25    26    1
    19    26    27    1
    20    27    30    1
    21    30    31    1
    22    31    32   ar
    23    32    33   ar
    24    33    34   ar
    25    34    35   ar
    26    35    36   ar
    27    27    28   am
    28    28    29    2
    29    28    37    1
    30    37    38    1
    31    38    39    1
    32    39    40   ar
    33    40    41   ar
    34    41    42   ar
    35    42    43   ar
    36     1    44    1
    37    44    45    1
    38    45    46   ar
    39    46    47   ar
    40    47    48   ar
    41    48    49   ar
    42    49    50   ar
    43     6    22    1
    44    22    23    1
    45    22    24    1
    46    16    17   ar
    47    17    18   ar
    48    18    14   ar
    49    36    31   ar
    50    43    39   ar
    51    50    45   ar
    52    11    12    1
    53     4     5    1
