@<TRIPOS>MOLECULE
*****
 18 19 0 0 0
SMALL
GASTEIGER

@<TRIPOS>ATOM
      1 C          61.9584   86.0878   10.6383 C.2     1  UNL1        0.0034
      2 C          60.9748   86.0444    9.5067 C.2     1  UNL1        0.0435
      3 C          63.6072   83.1696   12.7633 C.ar    1  UNL1        0.1387
      4 C          64.3399   82.4179   11.6918 C.ar    1  UNL1        0.0369
      5 C          64.2788   82.8895   10.2692 C.ar    1  UNL1        0.0031
      6 C          63.4850   84.1128    9.9180 C.ar    1  UNL1        0.0002
      7 C          62.7523   84.8645   10.9895 C.ar    1  UNL1        0.0031
      8 C          62.8134   84.3928   12.4121 C.ar    1  UNL1        0.0369
      9 C          62.8333   83.3699   15.2353 C.3     1  UNL1        0.2525
     10 O          63.6683   82.6980   14.1859 O.3     1  UNL1       -0.4714
     11 C          60.1810   87.2677    9.1556 C.2     1  UNL1        0.2111
     12 O          59.5706   87.3998    7.7917 O.2     1  UNL1       -0.2850
     13 C          59.9975   88.3589   10.1682 C.ar    1  UNL1        0.0961
     14 C          60.2140   89.8246    9.9340 C.ar    1  UNL1        0.0218
     15 C          59.9157   90.5476   11.2139 C.ar    1  UNL1        0.0200
     16 C          59.5147   89.5288   12.2392 C.ar    1  UNL1        0.0725
     17 N          59.5653   88.1761   11.5929 N.ar    1  UNL1       -0.3495
     18 H          59.3522   87.3188   12.0275 H       1  UNL1        0.1661
@<TRIPOS>BOND
     1     9    10    1
     2    10     3    1
     3     3     4   ar
     4     4     5   ar
     5     5     6   ar
     6     6     7   ar
     7     7     1    1
     8     1     2    2
     9     2    11    1
    10    11    12    2
    11    11    13    1
    12    13    14   ar
    13    14    15   ar
    14    15    16   ar
    15    16    17   ar
    16     7     8   ar
    17     8     3   ar
    18    17    13   ar
    19    17    18    1
@<TRIPOS>MOLECULE
*****
 18 19 0 0 0
SMALL
GASTEIGER

@<TRIPOS>ATOM
      1 C          62.0303   85.5184   10.9487 C.2     1  UNL1        0.0034
      2 C          62.8556   84.4421   10.3081 C.2     1  UNL1        0.0435
      3 C          60.2873   88.8691    9.7301 C.ar    1  UNL1        0.1387
      4 C          59.7717   88.4478    8.3860 C.ar    1  UNL1        0.0369
      5 C          60.0090   87.0500    7.8961 C.ar    1  UNL1        0.0031
      6 C          60.7618   86.0736    8.7503 C.ar    1  UNL1        0.0002
      7 C          61.2774   86.4949   10.0944 C.ar    1  UNL1        0.0031
      8 C          61.0401   87.8926   10.5843 C.ar    1  UNL1        0.0369
      9 C          59.4168   90.4944   11.5605 C.3     1  UNL1        0.2525
     10 O          60.0500   90.2668   10.2199 O.3     1  UNL1       -0.4714
     11 C          63.6085   83.4657   11.1624 C.2     1  UNL1        0.2111
     12 O          64.9303   82.9281   10.7000 O.2     1  UNL1       -0.2850
     13 C          63.0395   83.0268   12.4791 C.ar    1  UNL1        0.0961
     14 C          62.2763   81.7604   12.7315 C.ar    1  UNL1        0.0218
     15 C          61.8989   81.7281   14.1829 C.ar    1  UNL1        0.0200
     16 C          62.4290   82.9746   14.8275 C.ar    1  UNL1        0.0725
     17 N          63.1339   83.7772   13.7745 N.ar    1  UNL1       -0.3495
     18 H          63.5802   84.6442   13.9097 H       1  UNL1        0.1661
@<TRIPOS>BOND
     1     9    10    1
     2    10     3    1
     3     3     4   ar
     4     4     5   ar
     5     5     6   ar
     6     6     7   ar
     7     7     1    1
     8     1     2    2
     9     2    11    1
    10    11    12    2
    11    11    13    1
    12    13    14   ar
    13    14    15   ar
    14    15    16   ar
    15    16    17   ar
    16     7     8   ar
    17     8     3   ar
    18    17    13   ar
    19    17    18    1
@<TRIPOS>MOLECULE
*****
 18 19 0 0 0
SMALL
GASTEIGER

@<TRIPOS>ATOM
      1 C          64.1430   91.4181   12.4590 C.2     1  UNL1        0.0034
      2 C          65.1696   92.2231   11.7188 C.2     1  UNL1        0.0435
      3 C          62.4388   87.9624   11.5084 C.ar    1  UNL1        0.1387
      4 C          61.6845   88.3492   10.2709 C.ar    1  UNL1        0.0369
      5 C          61.7497   89.7590    9.7628 C.ar    1  UNL1        0.0031
      6 C          62.5692   90.7820   10.4921 C.ar    1  UNL1        0.0002
      7 C          63.3234   90.3951   11.7296 C.ar    1  UNL1        0.0031
      8 C          63.2582   88.9853   12.2377 C.ar    1  UNL1        0.0369
      9 C          62.0849   85.4264   11.0688 C.3     1  UNL1        0.2525
     10 O          62.3736   86.5526   12.0165 O.3     1  UNL1       -0.4714
     11 C          65.9892   93.2461   12.4482 C.2     1  UNL1        0.2111
     12 O          66.1596   94.6204   11.8717 O.2     1  UNL1       -0.2850
     13 C          66.6383   92.8948   13.7541 C.ar    1  UNL1        0.0961
     14 C          67.7415   91.8975   13.9501 C.ar    1  UNL1        0.0218
     15 C          68.0832   91.8654   15.4103 C.ar    1  UNL1        0.0200
     16 C          67.1911   92.8429   16.1168 C.ar    1  UNL1        0.0725
     17 N          66.2982   93.4790   15.0931 N.ar    1  UNL1       -0.3495
     18 H          65.6097   94.1604   15.2692 H       1  UNL1        0.1661
@<TRIPOS>BOND
     1     9    10    1
     2    10     3    1
     3     3     4   ar
     4     4     5   ar
     5     5     6   ar
     6     6     7   ar
     7     7     1    1
     8     1     2    2
     9     2    11    1
    10    11    12    2
    11    11    13    1
    12    13    14   ar
    13    14    15   ar
    14    15    16   ar
    15    16    17   ar
    16     7     8   ar
    17     8     3   ar
    18    17    13   ar
    19    17    18    1
@<TRIPOS>MOLECULE
*****
 18 19 0 0 0
SMALL
GASTEIGER

@<TRIPOS>ATOM
      1 C          62.2560   85.9974   10.4720 C.2     1  UNL1        0.0034
      2 C          61.1761   86.6182   11.3076 C.2     1  UNL1        0.0435
      3 C          63.3850   82.9415   12.7386 C.ar    1  UNL1        0.1387
      4 C          64.1198   82.1015   11.7364 C.ar    1  UNL1        0.0369
      5 C          64.2333   82.5601   10.3127 C.ar    1  UNL1        0.0031
      6 C          63.6120   83.8587    9.8913 C.ar    1  UNL1        0.0002
      7 C          62.8773   84.6987   10.8935 C.ar    1  UNL1        0.0031
      8 C          62.7638   84.2401   12.3171 C.ar    1  UNL1        0.0369
      9 C          62.6616   83.3846   15.1942 C.3     1  UNL1        0.2525
     10 O          63.2715   82.4830   14.1623 O.3     1  UNL1       -0.4714
     11 C          60.5548   87.9168   10.8862 C.2     1  UNL1        0.2111
     12 O          60.4131   89.0361   11.8746 O.2     1  UNL1       -0.2850
     13 C          60.0751   88.0961    9.4763 C.ar    1  UNL1        0.0961
     14 C          59.4481   87.0385    8.6171 C.ar    1  UNL1        0.0218
     15 C          59.1237   87.6532    7.2879 C.ar    1  UNL1        0.0200
     16 C          59.5503   89.0909    7.3255 C.ar    1  UNL1        0.0725
     17 N          60.1383   89.3645    8.6781 N.ar    1  UNL1       -0.3495
     18 H          60.5018   90.2255    8.9876 H       1  UNL1        0.1661
@<TRIPOS>BOND
     1     9    10    1
     2    10     3    1
     3     3     4   ar
     4     4     5   ar
     5     5     6   ar
     6     6     7   ar
     7     7     1    1
     8     1     2    2
     9     2    11    1
    10    11    12    2
    11    11    13    1
    12    13    14   ar
    13    14    15   ar
    14    15    16   ar
    15    16    17   ar
    16     7     8   ar
    17     8     3   ar
    18    17    13   ar
    19    17    18    1
@<TRIPOS>MOLECULE
*****
 18 19 0 0 0
SMALL
GASTEIGER

@<TRIPOS>ATOM
      1 C          62.6199   85.3863    9.8436 C.2     1  UNL1        0.0034
      2 C          62.6218   84.6737   11.1635 C.2     1  UNL1        0.0435
      3 C          60.1449   88.1780    8.4904 C.ar    1  UNL1        0.1387
      4 C          60.4707   89.3162    9.4113 C.ar    1  UNL1        0.0369
      5 C          61.5129   89.1445   10.4764 C.ar    1  UNL1        0.0031
      6 C          62.2293   87.8346   10.6205 C.ar    1  UNL1        0.0002
      7 C          61.9035   86.6964    9.6995 C.ar    1  UNL1        0.0031
      8 C          60.8613   86.8681    8.6345 C.ar    1  UNL1        0.0369
      9 C          59.1761   89.5164    6.4854 C.3     1  UNL1        0.2525
     10 O          59.1028   88.3497    7.4253 O.3     1  UNL1       -0.4714
     11 C          63.3382   83.3637   11.3076 C.2     1  UNL1        0.2111
     12 O          64.5479   83.0743   10.4692 O.2     1  UNL1       -0.2850
     13 C          62.8449   82.3432   12.2899 C.ar    1  UNL1        0.0961
     14 C          62.8495   80.8561   12.0936 C.ar    1  UNL1        0.0218
     15 C          62.2678   80.2244   13.3235 C.ar    1  UNL1        0.0200
     16 C          61.9036   81.3211   14.2799 C.ar    1  UNL1        0.0725
     17 N          62.2603   82.6305   13.6411 N.ar    1  UNL1       -0.3495
     18 H          62.1330   83.5221   14.0389 H       1  UNL1        0.1661
@<TRIPOS>BOND
     1     9    10    1
     2    10     3    1
     3     3     4   ar
     4     4     5   ar
     5     5     6   ar
     6     6     7   ar
     7     7     1    1
     8     1     2    2
     9     2    11    1
    10    11    12    2
    11    11    13    1
    12    13    14   ar
    13    14    15   ar
    14    15    16   ar
    15    16    17   ar
    16     7     8   ar
    17     8     3   ar
    18    17    13   ar
    19    17    18    1
@<TRIPOS>MOLECULE
*****
 18 19 0 0 0
SMALL
GASTEIGER

@<TRIPOS>ATOM
      1 C          64.4204   86.3748   14.5510 C.2     1  UNL1        0.0034
      2 C          63.5300   85.2040   14.8450 C.2     1  UNL1        0.0435
      3 C          64.1226   90.3172   14.8960 C.ar    1  UNL1        0.1387
      4 C          63.4241   90.4340   16.2182 C.ar    1  UNL1        0.0369
      5 C          63.0576   89.1978   16.9847 C.ar    1  UNL1        0.0031
      6 C          63.3897   87.8448   16.4290 C.ar    1  UNL1        0.0002
      7 C          64.0883   87.7279   15.1068 C.ar    1  UNL1        0.0031
      8 C          64.4547   88.9641   14.3403 C.ar    1  UNL1        0.0369
      9 C          64.4081   91.5587   12.6317 C.3     1  UNL1        0.2525
     10 O          64.4891   91.5533   14.1295 O.3     1  UNL1       -0.4714
     11 C          63.8621   83.8509   14.2892 C.2     1  UNL1        0.2111
     12 O          64.1598   82.7111   15.2178 O.2     1  UNL1       -0.2850
     13 C          63.8966   83.6376   12.8049 C.ar    1  UNL1        0.0961
     14 C          63.0453   84.3449   11.7925 C.ar    1  UNL1        0.0218
     15 C          63.4110   83.8240   10.4342 C.ar    1  UNL1        0.0200
     16 C          64.4884   82.7947   10.6071 C.ar    1  UNL1        0.0725
     17 N          64.7886   82.6796   12.0723 N.ar    1  UNL1       -0.3495
     18 H          65.4541   82.0804   12.4813 H       1  UNL1        0.1661
@<TRIPOS>BOND
     1     9    10    1
     2    10     3    1
     3     3     4   ar
     4     4     5   ar
     5     5     6   ar
     6     6     7   ar
     7     7     1    1
     8     1     2    2
     9     2    11    1
    10    11    12    2
    11    11    13    1
    12    13    14   ar
    13    14    15   ar
    14    15    16   ar
    15    16    17   ar
    16     7     8   ar
    17     8     3   ar
    18    17    13   ar
    19    17    18    1
@<TRIPOS>MOLECULE
*****
 18 19 0 0 0
SMALL
GASTEIGER

@<TRIPOS>ATOM
      1 C          62.6087   84.8132   12.0378 C.2     1  UNL1        0.0034
      2 C          63.3415   84.9757   13.3365 C.2     1  UNL1        0.0435
      3 C          61.1380   87.0667    9.1208 C.ar    1  UNL1        0.1387
      4 C          61.5274   88.4351    9.5960 C.ar    1  UNL1        0.0369
      5 C          62.2772   88.5962   10.8851 C.ar    1  UNL1        0.0031
      6 C          62.6377   87.3890   11.6990 C.ar    1  UNL1        0.0002
      7 C          62.2483   86.0206   11.2239 C.ar    1  UNL1        0.0031
      8 C          61.4985   85.8594    9.9348 C.ar    1  UNL1        0.0369
      9 C          58.8883   86.9073    7.8313 C.3     1  UNL1        0.2525
     10 O          60.3882   86.9055    7.8317 O.3     1  UNL1       -0.4714
     11 C          63.7019   83.7683   14.1505 C.2     1  UNL1        0.2111
     12 O          64.7054   83.8837   15.2594 O.2     1  UNL1       -0.2850
     13 C          63.0589   82.4457   13.8555 C.ar    1  UNL1        0.0961
     14 C          63.4360   81.5101   12.7454 C.ar    1  UNL1        0.0218
     15 C          62.5360   80.3125   12.8227 C.ar    1  UNL1        0.0200
     16 C          61.6026   80.5080   13.9805 C.ar    1  UNL1        0.0725
     17 N          61.9258   81.8264   14.6189 N.ar    1  UNL1       -0.3495
     18 H          61.4736   82.2167   15.4014 H       1  UNL1        0.1661
@<TRIPOS>BOND
     1     9    10    1
     2    10     3    1
     3     3     4   ar
     4     4     5   ar
     5     5     6   ar
     6     6     7   ar
     7     7     1    1
     8     1     2    2
     9     2    11    1
    10    11    12    2
    11    11    13    1
    12    13    14   ar
    13    14    15   ar
    14    15    16   ar
    15    16    17   ar
    16     7     8   ar
    17     8     3   ar
    18    17    13   ar
    19    17    18    1
@<TRIPOS>MOLECULE
*****
 18 19 0 0 0
SMALL
GASTEIGER

@<TRIPOS>ATOM
      1 C          62.7415   84.7361   12.3823 C.2     1  UNL1        0.0034
      2 C          63.5569   85.6452   13.2533 C.2     1  UNL1        0.0435
      3 C          60.8748   86.4442    9.3248 C.ar    1  UNL1        0.1387
      4 C          61.7173   85.9704    8.1779 C.ar    1  UNL1        0.0369
      5 C          62.9012   85.0851    8.4323 C.ar    1  UNL1        0.0031
      6 C          63.2426   84.6737    9.8338 C.ar    1  UNL1        0.0002
      7 C          62.4001   85.1475   10.9808 C.ar    1  UNL1        0.0031
      8 C          61.2162   86.0328   10.7263 C.ar    1  UNL1        0.0369
      9 C          59.2963   87.6681    7.6634 C.3     1  UNL1        0.2525
     10 O          59.6910   87.3295    9.0704 O.3     1  UNL1       -0.4714
     11 C          63.8982   85.2338   14.6549 C.2     1  UNL1        0.2111
     12 O          64.6455   83.9566   14.9006 O.2     1  UNL1       -0.2850
     13 C          63.4923   86.0995   15.8105 C.ar    1  UNL1        0.0961
     14 C          62.9542   85.6191   17.1257 C.ar    1  UNL1        0.0218
     15 C          62.6825   86.8204   17.9820 C.ar    1  UNL1        0.0200
     16 C          63.0527   88.0432   17.1960 C.ar    1  UNL1        0.0725
     17 N          63.5532   87.5977   15.8540 N.ar    1  UNL1       -0.3495
     18 H          63.8666   88.1854   15.1290 H       1  UNL1        0.1661
@<TRIPOS>BOND
     1     9    10    1
     2    10     3    1
     3     3     4   ar
     4     4     5   ar
     5     5     6   ar
     6     6     7   ar
     7     7     1    1
     8     1     2    2
     9     2    11    1
    10    11    12    2
    11    11    13    1
    12    13    14   ar
    13    14    15   ar
    14    15    16   ar
    15    16    17   ar
    16     7     8   ar
    17     8     3   ar
    18    17    13   ar
    19    17    18    1
@<TRIPOS>MOLECULE
*****
 18 19 0 0 0
SMALL
GASTEIGER

@<TRIPOS>ATOM
      1 C          62.5190   85.1486   11.3534 C.2     1  UNL1        0.0034
      2 C          63.1842   85.3929   12.6754 C.2     1  UNL1        0.0435
      3 C          61.5129   88.8415   10.3044 C.ar    1  UNL1        0.1387
      4 C          60.6453   88.5709    9.1112 C.ar    1  UNL1        0.0369
      5 C          60.4022   87.1594    8.6653 C.ar    1  UNL1        0.0031
      6 C          61.0267   86.0187    9.4127 C.ar    1  UNL1        0.0002
      7 C          61.8944   86.2894   10.6059 C.ar    1  UNL1        0.0031
      8 C          62.1375   87.7008   11.0518 C.ar    1  UNL1        0.0369
      9 C          63.0394   90.9420   10.3925 C.3     1  UNL1        0.2525
     10 O          61.7560   90.2530   10.7503 O.3     1  UNL1       -0.4714
     11 C          63.8088   84.2521   13.4229 C.2     1  UNL1        0.2111
     12 O          65.0931   84.4586   14.1698 O.2     1  UNL1       -0.2850
     13 C          63.1491   82.9050   13.4234 C.ar    1  UNL1        0.0961
     14 C          62.0922   82.4412   14.3814 C.ar    1  UNL1        0.0218
     15 C          61.7204   81.0347   14.0161 C.ar    1  UNL1        0.0200
     16 C          62.5475   80.6292   12.8322 C.ar    1  UNL1        0.0725
     17 N          63.4305   81.7851   12.4659 N.ar    1  UNL1       -0.3495
     18 H          64.0805   81.8053   11.7268 H       1  UNL1        0.1661
@<TRIPOS>BOND
     1     9    10    1
     2    10     3    1
     3     3     4   ar
     4     4     5   ar
     5     5     6   ar
     6     6     7   ar
     7     7     1    1
     8     1     2    2
     9     2    11    1
    10    11    12    2
    11    11    13    1
    12    13    14   ar
    13    14    15   ar
    14    15    16   ar
    15    16    17   ar
    16     7     8   ar
    17     8     3   ar
    18    17    13   ar
    19    17    18    1
