@<TRIPOS>MOLECULE
*****
 29 31 0 0 0
SMALL
GASTEIGER

@<TRIPOS>ATOM
      1 C          64.1719   91.0818   12.4514 C.3     1  UNL1        0.2669
      2 N          65.2918   91.6418   13.2774 N.2     1  UNL1       -0.0890
      3 C          65.9833   92.6971   12.4661 C.2     1  UNL1        0.3741
      4 N          67.1606   93.5164   12.9050 N.pl3   1  UNL1       -0.2512
      5 N          65.2907   92.7894   11.1387 N.am    1  UNL1       -0.1416
      6 C          65.6538   93.7170   10.0174 C.3     1  UNL1        0.2160
      7 C          64.1711   91.7910   11.1297 C.2     1  UNL1        0.3314
      8 O          63.2182   91.5451    9.9977 O.2     1  UNL1       -0.2520
      9 H          67.5474   93.3821   13.8004 H       1  UNL1        0.2412
     10 H          67.5466   94.1883   12.2978 H       1  UNL1        0.2412
     11 C          62.0562   88.4148   10.4115 C.ar    1  UNL1        0.0415
     12 C          60.6591   88.8599   10.7272 C.ar    1  UNL1        0.0082
     13 C          60.4328   90.0457   11.6176 C.ar    1  UNL1        0.0004
     14 C          61.6037   90.7863   12.1923 C.ar    1  UNL1       -0.0002
     15 C          63.0009   90.3412   11.8767 C.ar    1  UNL1        0.0279
     16 C          63.2272   89.1554   10.9863 C.ar    1  UNL1        0.0080
     17 C          62.7351   84.8575    7.7404 C.3     1  UNL1        0.0903
     18 C          62.5088   86.0433    8.6307 C.1     1  UNL1       -0.0854
     19 C          62.2825   87.2290    9.5211 C.1     1  UNL1       -0.0644
     20 C          63.9278   90.2178   13.6530 C.ar    1  UNL1        0.0275
     21 C          63.5169   90.8411   14.9540 C.ar    1  UNL1        0.0029
     22 C          63.2728   89.9771   16.1557 C.ar    1  UNL1        0.0369
     23 C          63.4396   88.4897   16.0563 C.ar    1  UNL1        0.1443
     24 C          63.8505   87.8663   14.7552 C.ar    1  UNL1        0.0369
     25 C          64.0946   88.7304   13.5536 C.ar    1  UNL1        0.0029
     26 O          63.1955   87.6256   17.2579 O.3     1  UNL1       -0.4236
     27 C          63.0002   86.1477   17.0917 C.3     1  UNL1        0.5087
     28 F          64.1815   85.2591   16.8368 F       1  UNL1       -0.1550
     29 F          61.6237   85.5584   17.1803 F       1  UNL1       -0.1550
@<TRIPOS>BOND
     1    17    18    1
     2    18    19    3
     3    19    11    1
     4    11    12   ar
     5    12    13   ar
     6    13    14   ar
     7    14    15   ar
     8     1    15    1
     9     1    20    1
    10    20    21   ar
    11    21    22   ar
    12    22    23   ar
    13    23    26    1
    14    26    27    1
    15    27    28    1
    16    27    29    1
    17    23    24   ar
    18    24    25   ar
    19     1     2    1
    20     2     3    2
    21     3     4    1
    22     3     5    1
    23     5     6    1
    24     5     7   am
    25     7     8    2
    26    15    16   ar
    27    16    11   ar
    28     7     1    1
    29    25    20   ar
    30     4     9    1
    31     4    10    1
@<TRIPOS>MOLECULE
*****
 29 31 0 0 0
SMALL
GASTEIGER

@<TRIPOS>ATOM
      1 C          64.0638   90.9636   12.5525 C.3     1  UNL1        0.2669
      2 N          64.0282   91.7202   11.2578 N.2     1  UNL1       -0.0890
      3 C          65.0863   92.7820   11.3122 C.2     1  UNL1        0.3741
      4 N          65.3998   93.7707   10.2286 N.pl3   1  UNL1       -0.2512
      5 N          65.7758   92.6818   12.6406 N.am    1  UNL1       -0.1416
      6 C          66.8998   93.5524   13.1185 C.3     1  UNL1        0.2160
      7 C          65.1439   91.5578   13.4071 C.2     1  UNL1        0.3314
      8 O          65.5251   91.1073   14.7862 O.2     1  UNL1       -0.2520
      9 H          64.8888   93.7574    9.3872 H       1  UNL1        0.2412
     10 H          66.1166   94.4329   10.3587 H       1  UNL1        0.2412
     11 C          63.9493   87.6554   14.7419 C.ar    1  UNL1        0.0415
     12 C          63.4673   88.2002   16.0536 C.ar    1  UNL1        0.0082
     13 C          63.1841   89.6661   16.1984 C.ar    1  UNL1        0.0004
     14 C          63.3829   90.5872   15.0314 C.ar    1  UNL1       -0.0002
     15 C          63.8650   90.0424   13.7196 C.ar    1  UNL1        0.0279
     16 C          64.1482   88.5765   13.5749 C.ar    1  UNL1        0.0080
     17 C          64.7989   83.2578   14.3076 C.3     1  UNL1        0.0903
     18 C          64.5157   84.7237   14.4524 C.1     1  UNL1       -0.0854
     19 C          64.2325   86.1895   14.5971 C.1     1  UNL1       -0.0644
     20 C          62.9422   90.1768   11.9419 C.ar    1  UNL1        0.0275
     21 C          61.5847   90.1871   12.5798 C.ar    1  UNL1        0.0029
     22 C          60.4630   89.4003   11.9692 C.ar    1  UNL1        0.0369
     23 C          60.6989   88.6031   10.7206 C.ar    1  UNL1        0.1443
     24 C          62.0566   88.5927   10.0827 C.ar    1  UNL1        0.0369
     25 C          63.1782   89.3795   10.6933 C.ar    1  UNL1        0.0029
     26 O          59.5773   87.8163   10.1100 O.3     1  UNL1       -0.4236
     27 C          59.6526   87.3949    8.6724 C.3     1  UNL1        0.5087
     28 F          59.8369   85.9476    8.3238 F       1  UNL1       -0.1550
     29 F          59.5437   88.4207    7.5834 F       1  UNL1       -0.1550
@<TRIPOS>BOND
     1    17    18    1
     2    18    19    3
     3    19    11    1
     4    11    12   ar
     5    12    13   ar
     6    13    14   ar
     7    14    15   ar
     8     1    15    1
     9     1    20    1
    10    20    21   ar
    11    21    22   ar
    12    22    23   ar
    13    23    26    1
    14    26    27    1
    15    27    28    1
    16    27    29    1
    17    23    24   ar
    18    24    25   ar
    19     1     2    1
    20     2     3    2
    21     3     4    1
    22     3     5    1
    23     5     6    1
    24     5     7   am
    25     7     8    2
    26    15    16   ar
    27    16    11   ar
    28     7     1    1
    29    25    20   ar
    30     4     9    1
    31     4    10    1
@<TRIPOS>MOLECULE
*****
 29 31 0 0 0
SMALL
GASTEIGER

@<TRIPOS>ATOM
      1 C          63.3069   85.3570   12.7735 C.3     1  UNL1        0.2669
      2 N          63.2878   86.8521   12.6534 N.2     1  UNL1       -0.0890
      3 C          63.7770   87.4275   13.9494 C.2     1  UNL1        0.3741
      4 N          63.9198   88.8862   14.2684 N.pl3   1  UNL1       -0.2512
      5 N          64.0984   86.2880   14.8706 N.am    1  UNL1       -0.1416
      6 C          64.6189   86.4072   16.2722 C.3     1  UNL1        0.2160
      7 C          63.8078   85.0084   14.1438 C.2     1  UNL1        0.3314
      8 O          63.9867   83.6233   14.6911 O.2     1  UNL1       -0.2520
      9 H          63.6819   89.5631   13.5943 H       1  UNL1        0.2412
     10 H          64.2514   89.1667   15.1519 H       1  UNL1        0.2412
     11 C          61.9822   81.6247   13.0287 C.ar    1  UNL1        0.0415
     12 C          63.0379   80.8955   12.2518 C.ar    1  UNL1        0.0082
     13 C          64.1833   81.6535   11.6487 C.ar    1  UNL1        0.0004
     14 C          64.2729   83.1406   11.8226 C.ar    1  UNL1       -0.0002
     15 C          63.2172   83.8698   12.5996 C.ar    1  UNL1        0.0279
     16 C          62.0719   83.1119   13.2026 C.ar    1  UNL1        0.0080
     17 C          58.5462   79.3508   14.8379 C.3     1  UNL1        0.0903
     18 C          59.6915   80.1088   14.2348 C.1     1  UNL1       -0.0854
     19 C          60.8369   80.8667   13.6318 C.1     1  UNL1       -0.0644
     20 C          62.7872   85.3948   11.3670 C.ar    1  UNL1        0.0275
     21 C          63.5824   84.7742   10.2568 C.ar    1  UNL1        0.0029
     22 C          63.0628   84.8119    8.8501 C.ar    1  UNL1        0.0369
     23 C          61.7479   85.4702    8.5537 C.ar    1  UNL1        0.1443
     24 C          60.9527   86.0908    9.6640 C.ar    1  UNL1        0.0369
     25 C          61.4724   86.0531   11.0705 C.ar    1  UNL1        0.0029
     26 O          61.2283   85.5079    7.1471 O.3     1  UNL1       -0.4236
     27 C          61.7194   84.5116    6.1391 C.3     1  UNL1        0.5087
     28 F          60.8341   83.3788    5.7113 F       1  UNL1       -0.1550
     29 F          63.0960   84.6479    5.5590 F       1  UNL1       -0.1550
@<TRIPOS>BOND
     1    17    18    1
     2    18    19    3
     3    19    11    1
     4    11    12   ar
     5    12    13   ar
     6    13    14   ar
     7    14    15   ar
     8     1    15    1
     9     1    20    1
    10    20    21   ar
    11    21    22   ar
    12    22    23   ar
    13    23    26    1
    14    26    27    1
    15    27    28    1
    16    27    29    1
    17    23    24   ar
    18    24    25   ar
    19     1     2    1
    20     2     3    2
    21     3     4    1
    22     3     5    1
    23     5     6    1
    24     5     7   am
    25     7     8    2
    26    15    16   ar
    27    16    11   ar
    28     7     1    1
    29    25    20   ar
    30     4     9    1
    31     4    10    1
@<TRIPOS>MOLECULE
*****
 29 31 0 0 0
SMALL
GASTEIGER

@<TRIPOS>ATOM
      1 C          62.8730   86.8465   12.2948 C.3     1  UNL1        0.2669
      2 N          63.8801   87.0693   13.3840 N.2     1  UNL1       -0.0890
      3 C          64.0450   85.7805   14.1335 C.2     1  UNL1        0.3741
      4 N          64.9552   85.5513   15.3035 N.pl3   1  UNL1       -0.2512
      5 N          63.1399   84.7611   13.5076 N.am    1  UNL1       -0.1416
      6 C          62.9860   83.3337   13.9419 C.3     1  UNL1        0.2160
      7 C          62.4155   85.4200   12.3712 C.2     1  UNL1        0.3314
      8 O          61.4103   84.7670   11.4696 O.2     1  UNL1       -0.2520
      9 H          65.5139   86.2868   15.6441 H       1  UNL1        0.2412
     10 H          64.9938   84.6652   15.7309 H       1  UNL1        0.2412
     11 C          61.2551   86.2475    8.7208 C.ar    1  UNL1        0.0415
     12 C          60.0139   87.0829    8.8279 C.ar    1  UNL1        0.0082
     13 C          59.7258   87.8395   10.0906 C.ar    1  UNL1        0.0004
     14 C          60.6788   87.7607   11.2463 C.ar    1  UNL1       -0.0002
     15 C          61.9199   86.9253   11.1392 C.ar    1  UNL1        0.0279
     16 C          62.2081   86.1687    9.8764 C.ar    1  UNL1        0.0080
     17 C          62.1196   83.9776    4.9326 C.3     1  UNL1        0.0903
     18 C          61.8314   84.7342    6.1953 C.1     1  UNL1       -0.0854
     19 C          61.5433   85.4909    7.4581 C.1     1  UNL1       -0.0644
     20 C          63.1313   88.2894   11.9768 C.ar    1  UNL1        0.0275
     21 C          63.6161   89.2187   13.0498 C.ar    1  UNL1        0.0029
     22 C          63.8744   90.6618   12.7318 C.ar    1  UNL1        0.0369
     23 C          63.6478   91.1754   11.3408 C.ar    1  UNL1        0.1443
     24 C          63.1629   90.2460   10.2678 C.ar    1  UNL1        0.0369
     25 C          62.9046   88.8031   10.5858 C.ar    1  UNL1        0.0029
     26 O          63.9060   92.6184   11.0228 O.3     1  UNL1       -0.4236
     27 C          65.3118   93.1029   10.8253 C.3     1  UNL1        0.5087
     28 F          65.6309   94.5606   10.9772 F       1  UNL1       -0.1550
     29 F          66.3984   92.1297   10.4760 F       1  UNL1       -0.1550
@<TRIPOS>BOND
     1    17    18    1
     2    18    19    3
     3    19    11    1
     4    11    12   ar
     5    12    13   ar
     6    13    14   ar
     7    14    15   ar
     8     1    15    1
     9     1    20    1
    10    20    21   ar
    11    21    22   ar
    12    22    23   ar
    13    23    26    1
    14    26    27    1
    15    27    28    1
    16    27    29    1
    17    23    24   ar
    18    24    25   ar
    19     1     2    1
    20     2     3    2
    21     3     4    1
    22     3     5    1
    23     5     6    1
    24     5     7   am
    25     7     8    2
    26    15    16   ar
    27    16    11   ar
    28     7     1    1
    29    25    20   ar
    30     4     9    1
    31     4    10    1
@<TRIPOS>MOLECULE
*****
 29 31 0 0 0
SMALL
GASTEIGER

@<TRIPOS>ATOM
      1 C          62.8749   85.0779   12.0185 C.3     1  UNL1        0.2669
      2 N          62.7045   86.5669   11.9564 N.2     1  UNL1       -0.0890
      3 C          62.4874   86.9492   10.5223 C.2     1  UNL1        0.3741
      4 N          62.2719   88.3400   10.0034 N.pl3   1  UNL1       -0.2512
      5 N          62.5235   85.6964    9.6980 N.am    1  UNL1       -0.1416
      6 C          62.3505   85.6146    8.2104 C.3     1  UNL1        0.2160
      7 C          62.7630   84.5399   10.6228 C.2     1  UNL1        0.3314
      8 O          62.8716   83.0985   10.2222 O.2     1  UNL1       -0.2520
      9 H          62.2648   89.1022   10.6265 H       1  UNL1        0.2412
     10 H          62.1376   88.4906    9.0398 H       1  UNL1        0.2412
     11 C          62.1240   81.3825   13.2557 C.ar    1  UNL1        0.0415
     12 C          63.4826   80.7596   13.1287 C.ar    1  UNL1        0.0082
     13 C          64.6386   81.5760   12.6317 C.ar    1  UNL1        0.0004
     14 C          64.4361   83.0154   12.2616 C.ar    1  UNL1       -0.0002
     15 C          63.0775   83.6384   12.3886 C.ar    1  UNL1        0.0279
     16 C          61.9215   82.8219   12.8857 C.ar    1  UNL1        0.0080
     17 C          58.6560   78.9332   14.7469 C.3     1  UNL1        0.0903
     18 C          59.8120   79.7496   14.2498 C.1     1  UNL1       -0.0854
     19 C          60.9680   80.5661   13.7528 C.1     1  UNL1       -0.0644
     20 C          63.0291   85.3150   13.4916 C.ar    1  UNL1        0.0275
     21 C          62.1225   84.6180   14.4623 C.ar    1  UNL1        0.0029
     22 C          62.2768   84.8551   15.9355 C.ar    1  UNL1        0.0369
     23 C          63.3376   85.7891   16.4379 C.ar    1  UNL1        0.1443
     24 C          64.2442   86.4860   15.4670 C.ar    1  UNL1        0.0369
     25 C          64.0900   86.2490   13.9939 C.ar    1  UNL1        0.0029
     26 O          63.4918   86.0261   17.9109 O.3     1  UNL1       -0.4236
     27 C          62.9875   87.2996   18.5225 C.3     1  UNL1        0.5087
     28 F          62.3957   87.2867   19.9007 F       1  UNL1       -0.1550
     29 F          63.0748   88.5858   17.7557 F       1  UNL1       -0.1550
@<TRIPOS>BOND
     1    17    18    1
     2    18    19    3
     3    19    11    1
     4    11    12   ar
     5    12    13   ar
     6    13    14   ar
     7    14    15   ar
     8     1    15    1
     9     1    20    1
    10    20    21   ar
    11    21    22   ar
    12    22    23   ar
    13    23    26    1
    14    26    27    1
    15    27    28    1
    16    27    29    1
    17    23    24   ar
    18    24    25   ar
    19     1     2    1
    20     2     3    2
    21     3     4    1
    22     3     5    1
    23     5     6    1
    24     5     7   am
    25     7     8    2
    26    15    16   ar
    27    16    11   ar
    28     7     1    1
    29    25    20   ar
    30     4     9    1
    31     4    10    1
@<TRIPOS>MOLECULE
*****
 29 31 0 0 0
SMALL
GASTEIGER

@<TRIPOS>ATOM
      1 C          61.2540   87.5745    9.9858 C.3     1  UNL1        0.2669
      2 N          60.9882   86.2646    9.3051 N.2     1  UNL1       -0.0890
      3 C          60.1571   86.5358    8.0862 C.2     1  UNL1        0.3741
      4 N          59.6610   85.5097    7.1111 N.pl3   1  UNL1       -0.2512
      5 N          59.9093   88.0135    8.0135 N.am    1  UNL1       -0.1416
      6 C          59.1218   88.7243    6.9531 C.3     1  UNL1        0.2160
      7 C          60.5872   88.6554    9.1876 C.2     1  UNL1        0.3314
      8 O          60.5967   90.1209    9.5073 O.2     1  UNL1       -0.2520
      9 H          59.8772   84.5586    7.2447 H       1  UNL1        0.2412
     10 H          59.1191   85.7873    6.3374 H       1  UNL1        0.2412
     11 C          63.2566   90.7125   11.3617 C.ar    1  UNL1        0.0415
     12 C          62.5253   90.9752   12.6446 C.ar    1  UNL1        0.0082
     13 C          61.3701   90.1043   13.0413 C.ar    1  UNL1        0.0004
     14 C          60.9464   88.9708   12.1551 C.ar    1  UNL1       -0.0002
     15 C          61.6778   88.7081   10.8721 C.ar    1  UNL1        0.0279
     16 C          62.8329   89.5789   10.4754 C.ar    1  UNL1        0.0080
     17 C          66.7220   93.3250   10.1716 C.3     1  UNL1        0.0903
     18 C          65.5668   92.4541   10.5683 C.1     1  UNL1       -0.0854
     19 C          64.4117   91.5833   10.9650 C.1     1  UNL1       -0.0644
     20 C          62.0094   86.7306   10.9692 C.ar    1  UNL1        0.0275
     21 C          62.8799   87.3815   12.0030 C.ar    1  UNL1        0.0029
     22 C          63.6354   86.5376   12.9865 C.ar    1  UNL1        0.0369
     23 C          63.5202   85.0428   12.9362 C.ar    1  UNL1        0.1443
     24 C          62.6497   84.3920   11.9024 C.ar    1  UNL1        0.0369
     25 C          61.8943   85.2359   10.9190 C.ar    1  UNL1        0.0029
     26 O          64.2756   84.1989   13.9197 O.3     1  UNL1       -0.4236
     27 C          63.5881   83.0621   14.6160 C.3     1  UNL1        0.5087
     28 F          63.8662   81.6485   14.1982 F       1  UNL1       -0.1550
     29 F          62.6227   83.3387   15.7302 F       1  UNL1       -0.1550
@<TRIPOS>BOND
     1    17    18    1
     2    18    19    3
     3    19    11    1
     4    11    12   ar
     5    12    13   ar
     6    13    14   ar
     7    14    15   ar
     8     1    15    1
     9     1    20    1
    10    20    21   ar
    11    21    22   ar
    12    22    23   ar
    13    23    26    1
    14    26    27    1
    15    27    28    1
    16    27    29    1
    17    23    24   ar
    18    24    25   ar
    19     1     2    1
    20     2     3    2
    21     3     4    1
    22     3     5    1
    23     5     6    1
    24     5     7   am
    25     7     8    2
    26    15    16   ar
    27    16    11   ar
    28     7     1    1
    29    25    20   ar
    30     4     9    1
    31     4    10    1
@<TRIPOS>MOLECULE
*****
 29 31 0 0 0
SMALL
GASTEIGER

@<TRIPOS>ATOM
      1 C          62.8014   84.8061   12.7553 C.3     1  UNL1        0.2669
      2 N          62.8560   84.9795   14.2443 N.2     1  UNL1       -0.0890
      3 C          62.6465   83.6350   14.8755 C.2     1  UNL1        0.3741
      4 N          62.6249   83.3456   16.3471 N.pl3   1  UNL1       -0.2512
      5 N          62.4624   82.6306   13.7767 N.am    1  UNL1       -0.1416
      6 C          62.2244   81.1607   13.9565 C.3     1  UNL1        0.2160
      7 C          62.5582   83.3545   12.4663 C.2     1  UNL1        0.3314
      8 O          62.4327   82.7353   11.1058 O.2     1  UNL1       -0.2520
      9 H          62.7561   84.0758   16.9944 H       1  UNL1        0.2412
     10 H          62.4795   82.4255   16.6658 H       1  UNL1        0.2412
     11 C          61.7569   85.9282    9.0947 C.ar    1  UNL1        0.0415
     12 C          62.7896   85.2142    8.2739 C.ar    1  UNL1        0.0082
     13 C          63.8262   84.3642    8.9468 C.ar    1  UNL1        0.0004
     14 C          63.8302   84.2282   10.4406 C.ar    1  UNL1       -0.0002
     15 C          62.7975   84.9421   11.2614 C.ar    1  UNL1        0.0279
     16 C          61.7609   85.7921   10.5885 C.ar    1  UNL1        0.0080
     17 C          58.6470   88.4782    7.0758 C.3     1  UNL1        0.0903
     18 C          59.6836   87.6282    7.7488 C.1     1  UNL1       -0.0854
     19 C          60.7203   86.7782    8.4217 C.1     1  UNL1       -0.0644
     20 C          63.0439   86.2862   12.7320 C.ar    1  UNL1        0.0275
     21 C          62.4078   87.1337   11.6704 C.ar    1  UNL1        0.0029
     22 C          62.6502   88.6139   11.6471 C.ar    1  UNL1        0.0369
     23 C          63.5287   89.2464   12.6854 C.ar    1  UNL1        0.1443
     24 C          64.1648   88.3988   13.7471 C.ar    1  UNL1        0.0369
     25 C          63.9224   86.9187   13.7704 C.ar    1  UNL1        0.0029
     26 O          63.7712   90.7265   12.6621 O.3     1  UNL1       -0.4236
     27 C          64.0940   91.4133   11.3683 C.3     1  UNL1        0.5087
     28 F          63.0470   91.5326   10.3009 F       1  UNL1       -0.1550
     29 F          65.4640   91.9809   11.1419 F       1  UNL1       -0.1550
@<TRIPOS>BOND
     1    17    18    1
     2    18    19    3
     3    19    11    1
     4    11    12   ar
     5    12    13   ar
     6    13    14   ar
     7    14    15   ar
     8     1    15    1
     9     1    20    1
    10    20    21   ar
    11    21    22   ar
    12    22    23   ar
    13    23    26    1
    14    26    27    1
    15    27    28    1
    16    27    29    1
    17    23    24   ar
    18    24    25   ar
    19     1     2    1
    20     2     3    2
    21     3     4    1
    22     3     5    1
    23     5     6    1
    24     5     7   am
    25     7     8    2
    26    15    16   ar
    27    16    11   ar
    28     7     1    1
    29    25    20   ar
    30     4     9    1
    31     4    10    1
@<TRIPOS>MOLECULE
*****
 29 31 0 0 0
SMALL
GASTEIGER

@<TRIPOS>ATOM
      1 C          62.8341   88.0202   12.0180 C.3     1  UNL1        0.2669
      2 N          63.8257   88.1462   13.1364 N.2     1  UNL1       -0.0890
      3 C          64.2013   89.5929   13.2620 C.2     1  UNL1        0.3741
      4 N          65.1669   90.1702   14.2542 N.pl3   1  UNL1       -0.2512
      5 N          63.4419   90.3612   12.2213 N.am    1  UNL1       -0.1416
      6 C          63.5147   91.8414   11.9900 C.3     1  UNL1        0.2160
      7 C          62.5969   89.3891   11.4524 C.2     1  UNL1        0.3314
      8 O          61.6763   89.7267   10.3172 O.2     1  UNL1       -0.2520
      9 H          65.6186   89.5816   14.9013 H       1  UNL1        0.2412
     10 H          65.3489   91.1377   14.2584 H       1  UNL1        0.2412
     11 C          61.3292   86.3724    8.7362 C.ar    1  UNL1        0.0415
     12 C          59.8789   86.7273    8.8802 C.ar    1  UNL1        0.0082
     13 C          59.4137   87.5132   10.0701 C.ar    1  UNL1        0.0004
     14 C          60.3987   87.9442   11.1160 C.ar    1  UNL1       -0.0002
     15 C          61.8490   87.5893   10.9720 C.ar    1  UNL1        0.0279
     16 C          62.3142   86.8033    9.7821 C.ar    1  UNL1        0.0080
     17 C          62.7248   84.0146    5.1664 C.3     1  UNL1        0.0903
     18 C          62.2596   84.8005    6.3564 C.1     1  UNL1       -0.0854
     19 C          61.7944   85.5865    7.5463 C.1     1  UNL1       -0.0644
     20 C          62.8653   86.5612   12.3649 C.ar    1  UNL1        0.0275
     21 C          62.1334   85.5709   11.5085 C.ar    1  UNL1        0.0029
     22 C          62.1646   84.1118   11.8554 C.ar    1  UNL1        0.0369
     23 C          62.9278   83.6432   13.0587 C.ar    1  UNL1        0.1443
     24 C          63.6597   84.6336   13.9151 C.ar    1  UNL1        0.0369
     25 C          63.6285   86.0926   13.5682 C.ar    1  UNL1        0.0029
     26 O          62.9590   82.1842   13.4056 O.3     1  UNL1       -0.4236
     27 C          62.8364   81.1531   12.3231 C.3     1  UNL1        0.5087
     28 F          63.2954   81.4695   10.9306 F       1  UNL1       -0.1550
     29 F          62.2547   79.8057   12.6331 F       1  UNL1       -0.1550
@<TRIPOS>BOND
     1    17    18    1
     2    18    19    3
     3    19    11    1
     4    11    12   ar
     5    12    13   ar
     6    13    14   ar
     7    14    15   ar
     8     1    15    1
     9     1    20    1
    10    20    21   ar
    11    21    22   ar
    12    22    23   ar
    13    23    26    1
    14    26    27    1
    15    27    28    1
    16    27    29    1
    17    23    24   ar
    18    24    25   ar
    19     1     2    1
    20     2     3    2
    21     3     4    1
    22     3     5    1
    23     5     6    1
    24     5     7   am
    25     7     8    2
    26    15    16   ar
    27    16    11   ar
    28     7     1    1
    29    25    20   ar
    30     4     9    1
    31     4    10    1
@<TRIPOS>MOLECULE
*****
 29 31 0 0 0
SMALL
GASTEIGER

@<TRIPOS>ATOM
      1 C          62.7102   86.3562   11.6451 C.3     1  UNL1        0.2669
      2 N          63.0761   84.9018   11.6736 N.2     1  UNL1       -0.0890
      3 C          63.6789   84.6017   13.0140 C.2     1  UNL1        0.3741
      4 N          64.1860   83.2670   13.4738 N.pl3   1  UNL1       -0.2512
      5 N          63.6857   85.8706   13.8138 N.am    1  UNL1       -0.1416
      6 C          64.2007   86.0277   15.2138 C.3     1  UNL1        0.2160
      7 C          63.0870   86.9550   12.9677 C.2     1  UNL1        0.3314
      8 O          62.8982   88.3868   13.3732 O.2     1  UNL1       -0.2520
      9 H          64.1383   82.4886   12.8729 H       1  UNL1        0.2412
     10 H          64.5666   83.1694   14.3765 H       1  UNL1        0.2412
     11 C          62.7808   90.2404   10.8341 C.ar    1  UNL1        0.0415
     12 C          61.3156   90.5262   10.6880 C.ar    1  UNL1        0.0082
     13 C          60.3152   89.4220   10.8610 C.ar    1  UNL1        0.0004
     14 C          60.7801   88.0320   11.1800 C.ar    1  UNL1       -0.0002
     15 C          62.2453   87.7462   11.3260 C.ar    1  UNL1        0.0279
     16 C          63.2457   88.8505   11.1531 C.ar    1  UNL1        0.0080
     17 C          65.7820   93.5531   10.3151 C.3     1  UNL1        0.0903
     18 C          64.7816   92.4489   10.4881 C.1     1  UNL1       -0.0854
     19 C          63.7812   91.3447   10.6611 C.1     1  UNL1       -0.0644
     20 C          62.2363   86.0480   10.2557 C.ar    1  UNL1        0.0275
     21 C          60.8059   86.2968    9.8787 C.ar    1  UNL1        0.0029
     22 C          60.3319   85.9886    8.4893 C.ar    1  UNL1        0.0369
     23 C          61.2884   85.4315    7.4769 C.ar    1  UNL1        0.1443
     24 C          62.7188   85.1826    7.8539 C.ar    1  UNL1        0.0369
     25 C          63.1927   85.4909    9.2433 C.ar    1  UNL1        0.0029
     26 O          60.8144   85.1233    6.0875 O.3     1  UNL1       -0.4236
     27 C          61.7412   84.4675    5.1072 C.3     1  UNL1        0.5087
     28 F          63.1783   84.2391    5.4711 F       1  UNL1       -0.1550
     29 F          61.2309   84.0402    3.7629 F       1  UNL1       -0.1550
@<TRIPOS>BOND
     1    17    18    1
     2    18    19    3
     3    19    11    1
     4    11    12   ar
     5    12    13   ar
     6    13    14   ar
     7    14    15   ar
     8     1    15    1
     9     1    20    1
    10    20    21   ar
    11    21    22   ar
    12    22    23   ar
    13    23    26    1
    14    26    27    1
    15    27    28    1
    16    27    29    1
    17    23    24   ar
    18    24    25   ar
    19     1     2    1
    20     2     3    2
    21     3     4    1
    22     3     5    1
    23     5     6    1
    24     5     7   am
    25     7     8    2
    26    15    16   ar
    27    16    11   ar
    28     7     1    1
    29    25    20   ar
    30     4     9    1
    31     4    10    1
