@<TRIPOS>MOLECULE
*****
 39 44 0 0 0
SMALL
GASTEIGER

@<TRIPOS>ATOM
      1 C          63.3542   90.5935   11.4475 C.ar    1  UNL1        0.1261
      2 N          63.8800   91.6433   10.5140 N.ar    1  UNL1       -0.1632
      3 N          65.0043   92.3566   11.2047 N.ar    1  UNL1       -0.2290
      4 C          65.1733   91.7477   12.5651 C.ar    1  UNL1        0.0822
      5 C          64.1535   90.6580   12.7152 C.ar    1  UNL1        0.0413
      6 C          65.8169   93.4815   10.6351 C.ar    1  UNL1        0.0933
      7 C          65.3511   94.8985   10.7936 C.ar    1  UNL1        0.0209
      8 C          66.1637   96.0232   10.2240 C.ar    1  UNL1        0.0130
      9 C          67.4421   95.7310    9.4958 C.ar    1  UNL1        0.0586
     10 CL         68.2548   96.8559    8.9262 Cl      1  UNL1       -0.0822
     11 C          67.9079   94.3140    9.3372 C.ar    1  UNL1        0.0243
     12 C          67.0953   93.1893    9.9069 C.ar    1  UNL1        0.0761
     13 CL         67.5611   91.7722    9.7483 Cl      1  UNL1       -0.0806
     14 C          66.1846   92.1566   13.5947 C.ar    1  UNL1        0.0176
     15 C          67.6492   92.0022   13.3101 C.ar    1  UNL1        0.0024
     16 C          68.6605   92.4111   14.3397 C.ar    1  UNL1        0.0114
     17 C          68.2072   92.9745   15.6539 C.ar    1  UNL1        0.0577
     18 CL         69.2185   93.3835   16.6835 Cl      1  UNL1       -0.0822
     19 C          66.7425   93.1290   15.9385 C.ar    1  UNL1        0.0114
     20 C          65.7313   92.7200   14.9088 C.ar    1  UNL1        0.0024
     21 C          60.8381   87.9638   10.0987 C.ar    1  UNL1        0.1185
     22 N          60.1466   88.4099   11.3528 N.ar    1  UNL1       -0.1450
     23 N          61.0050   89.4493   12.0107 N.ar    1  UNL1       -0.1395
     24 C          62.2269   89.6455   11.1632 C.ar    1  UNL1        0.1525
     25 S          62.1238   88.7274    9.9815 S.2     1  UNL1       -0.0480
     26 C          60.3326   86.9347    9.1316 C.3     1  UNL1        0.1301
     27 C          59.2258   87.8614    8.7239 C.3     1  UNL1        0.0145
     28 C          58.7203   86.8323    7.7567 C.3     1  UNL1        0.0014
     29 C          59.8270   85.9055    8.1644 C.3     1  UNL1        0.0145
     30 F          62.5460   85.0811    9.9469 F       1  UNL1       -0.1696
     31 C          61.4393   86.0078    9.5392 C.3     1  UNL1        0.4025
     32 F          62.0137   86.0852    8.1557 F       1  UNL1       -0.1696
     33 F          60.8650   85.9305   10.9227 F       1  UNL1       -0.1696
     34 C          63.9660   89.7859   13.9211 C.3     1  UNL1        0.1587
     35 N          63.9887   88.2930   13.7778 N.ar    1  UNL1       -0.2254
     36 C          64.6436   87.3267   14.7199 C.ar    1  UNL1        0.1975
     37 N          64.4202   85.9407   14.1917 N.ar    1  UNL1       -0.2007
     38 C          63.6271   86.0503   12.9232 C.ar    1  UNL1        0.2210
     39 N          63.3604   87.5041   12.6674 N.ar    1  UNL1       -0.1448
@<TRIPOS>BOND
     1    30    31    1
     2    31    32    1
     3    31    33    1
     4    31    26    1
     5    26    21    1
     6    21    22   ar
     7    22    23   ar
     8    23    24   ar
     9    24     1    1
    10     1     2   ar
    11     2     3   ar
    12     3     6    1
    13     6     7   ar
    14     7     8   ar
    15     8     9   ar
    16     9    10    1
    17     9    11   ar
    18    11    12   ar
    19    12    13    1
    20     3     4   ar
    21     4    14    1
    22    14    15   ar
    23    15    16   ar
    24    16    17   ar
    25    17    18    1
    26    17    19   ar
    27    19    20   ar
    28     4     5   ar
    29     5    34    1
    30    34    35    1
    31    35    36   ar
    32    36    37   ar
    33    37    38   ar
    34    38    39   ar
    35    24    25   ar
    36    26    27    1
    37    27    28    1
    38    28    29    1
    39    29    26    1
    40    25    21   ar
    41     5     1   ar
    42    39    35   ar
    43    12     6   ar
    44    20    14   ar
@<TRIPOS>MOLECULE
*****
 39 44 0 0 0
SMALL
GASTEIGER

@<TRIPOS>ATOM
      1 C          63.6793   88.8045   13.1760 C.ar    1  UNL1        0.1261
      2 N          62.9242   88.8406   11.8804 N.ar    1  UNL1       -0.1632
      3 N          62.5637   87.4313   11.5145 N.ar    1  UNL1       -0.2290
      4 C          63.0961   86.5241   12.5840 C.ar    1  UNL1        0.0822
      5 C          63.7856   87.3728   13.6108 C.ar    1  UNL1        0.0413
      6 C          61.8042   87.0041   10.2935 C.ar    1  UNL1        0.0933
      7 C          62.4828   86.1835    9.2371 C.ar    1  UNL1        0.0209
      8 C          61.7233   85.7564    8.0162 C.ar    1  UNL1        0.0130
      9 C          60.2852   86.1498    7.8517 C.ar    1  UNL1        0.0586
     10 CL         59.5257   85.7226    6.6308 Cl      1  UNL1       -0.0822
     11 C          59.6066   86.9704    8.9082 C.ar    1  UNL1        0.0243
     12 C          60.3661   87.3976   10.1291 C.ar    1  UNL1        0.0761
     13 CL         59.6875   88.2182   11.1856 Cl      1  UNL1       -0.0806
     14 C          62.9624   85.0306   12.6202 C.ar    1  UNL1        0.0176
     15 C          62.3512   84.3610   13.8152 C.ar    1  UNL1        0.0024
     16 C          62.2175   82.8674   13.8514 C.ar    1  UNL1        0.0114
     17 C          62.6951   82.0433   12.6926 C.ar    1  UNL1        0.0577
     18 CL         62.5615   80.5497   12.7288 Cl      1  UNL1       -0.0822
     19 C          63.3064   82.7129   11.4975 C.ar    1  UNL1        0.0114
     20 C          63.4400   84.2065   11.4614 C.ar    1  UNL1        0.0024
     21 C          65.7212   91.7584   14.6493 C.ar    1  UNL1        0.1185
     22 N          64.4403   91.8783   15.4206 N.ar    1  UNL1       -0.1450
     23 N          63.5195   90.7863   14.9625 N.ar    1  UNL1       -0.1395
     24 C          64.2313   89.9916   13.9082 C.ar    1  UNL1        0.1525
     25 S          65.5921   90.5923   13.7146 S.2     1  UNL1       -0.0480
     26 C          66.9207   92.6482   14.7883 C.3     1  UNL1        0.1301
     27 C          66.8524   92.5073   16.2800 C.3     1  UNL1        0.0145
     28 C          68.0519   93.3972   16.4191 C.3     1  UNL1        0.0014
     29 C          68.1202   93.5381   14.9273 C.3     1  UNL1        0.0145
     30 F          67.0573   92.9302   11.8047 F       1  UNL1       -0.1696
     31 C          66.9890   92.7892   13.2964 C.3     1  UNL1        0.4025
     32 F          68.1315   91.8180   13.2570 F       1  UNL1       -0.1696
     33 F          65.8466   93.7604   13.3359 F       1  UNL1       -0.1696
     34 C          64.4624   86.8768   14.8541 C.3     1  UNL1        0.1587
     35 N          63.6973   86.7915   16.1414 N.ar    1  UNL1       -0.2254
     36 C          63.2673   85.5300   16.8296 C.ar    1  UNL1        0.1975
     37 N          62.5320   85.9115   18.0801 N.ar    1  UNL1       -0.2007
     38 C          62.5075   87.4089   18.1648 C.ar    1  UNL1        0.2210
     39 N          63.2277   87.9528   16.9666 N.ar    1  UNL1       -0.1448
@<TRIPOS>BOND
     1    30    31    1
     2    31    32    1
     3    31    33    1
     4    31    26    1
     5    26    21    1
     6    21    22   ar
     7    22    23   ar
     8    23    24   ar
     9    24     1    1
    10     1     2   ar
    11     2     3   ar
    12     3     6    1
    13     6     7   ar
    14     7     8   ar
    15     8     9   ar
    16     9    10    1
    17     9    11   ar
    18    11    12   ar
    19    12    13    1
    20     3     4   ar
    21     4    14    1
    22    14    15   ar
    23    15    16   ar
    24    16    17   ar
    25    17    18    1
    26    17    19   ar
    27    19    20   ar
    28     4     5   ar
    29     5    34    1
    30    34    35    1
    31    35    36   ar
    32    36    37   ar
    33    37    38   ar
    34    38    39   ar
    35    24    25   ar
    36    26    27    1
    37    27    28    1
    38    28    29    1
    39    29    26    1
    40    25    21   ar
    41     5     1   ar
    42    39    35   ar
    43    12     6   ar
    44    20    14   ar
@<TRIPOS>MOLECULE
*****
 39 44 0 0 0
SMALL
GASTEIGER

@<TRIPOS>ATOM
      1 C          63.9317   88.5575   13.6025 C.ar    1  UNL1        0.1261
      2 N          64.0022   87.1431   14.0971 N.ar    1  UNL1       -0.1632
      3 N          63.3543   86.2606   13.0718 N.ar    1  UNL1       -0.2290
      4 C          62.8834   87.1295   11.9434 C.ar    1  UNL1        0.0822
      5 C          63.2402   88.5491   12.2713 C.ar    1  UNL1        0.0413
      6 C          63.2038   84.7707   13.1593 C.ar    1  UNL1        0.0933
      7 C          63.6957   83.9002   12.0413 C.ar    1  UNL1        0.0209
      8 C          63.5452   82.4104   12.1289 C.ar    1  UNL1        0.0130
      9 C          62.9026   81.7911   13.3346 C.ar    1  UNL1        0.0586
     10 CL         62.7521   80.3012   13.4222 Cl      1  UNL1       -0.0822
     11 C          62.4106   82.6616   14.4526 C.ar    1  UNL1        0.0243
     12 C          62.5612   84.1514   14.3650 C.ar    1  UNL1        0.0761
     13 CL         62.0692   85.0221   15.4831 Cl      1  UNL1       -0.0806
     14 C          62.1792   86.6612   10.7045 C.ar    1  UNL1        0.0176
     15 C          60.7054   86.8914   10.5471 C.ar    1  UNL1        0.0024
     16 C          60.0012   86.4230    9.3083 C.ar    1  UNL1        0.0114
     17 C          60.7708   85.7244    8.2268 C.ar    1  UNL1        0.0577
     18 CL         60.0667   85.2560    6.9879 Cl      1  UNL1       -0.0822
     19 C          62.2448   85.4942    8.3841 C.ar    1  UNL1        0.0114
     20 C          62.9488   85.9626    9.6230 C.ar    1  UNL1        0.0024
     21 C          65.8689   91.6376   14.9537 C.ar    1  UNL1        0.1185
     22 N          64.6768   91.6226   15.8641 N.ar    1  UNL1       -0.1450
     23 N          63.8061   90.4670   15.4687 N.ar    1  UNL1       -0.1395
     24 C          64.4600   89.7677   14.3140 C.ar    1  UNL1        0.1525
     25 S          65.7348   90.4912   13.9957 S.2     1  UNL1       -0.0480
     26 C          66.9969   92.6254   14.9942 C.3     1  UNL1        0.1301
     27 C          67.0594   92.4928   16.4870 C.3     1  UNL1        0.0145
     28 C          68.1875   93.4807   16.5275 C.3     1  UNL1        0.0014
     29 C          68.1250   93.6133   15.0347 C.3     1  UNL1        0.0145
     30 F          66.8720   92.8906   12.0085 F       1  UNL1       -0.1696
     31 C          66.9344   92.7580   13.5013 C.3     1  UNL1        0.4025
     32 F          65.7394   93.6554   13.6310 F       1  UNL1       -0.1696
     33 F          68.1293   91.8607   13.3716 F       1  UNL1       -0.1696
     34 C          62.9555   89.7494   11.4181 C.3     1  UNL1        0.1587
     35 N          61.5386   90.1213   11.0955 N.ar    1  UNL1       -0.2254
     36 C          60.9680   90.3113    9.7214 C.ar    1  UNL1        0.1975
     37 N          59.5202   90.6758    9.8669 N.ar    1  UNL1       -0.2007
     38 C          59.1961   90.7111   11.3311 C.ar    1  UNL1        0.2210
     39 N          60.4435   90.3684   12.0904 N.ar    1  UNL1       -0.1448
@<TRIPOS>BOND
     1    30    31    1
     2    31    32    1
     3    31    33    1
     4    31    26    1
     5    26    21    1
     6    21    22   ar
     7    22    23   ar
     8    23    24   ar
     9    24     1    1
    10     1     2   ar
    11     2     3   ar
    12     3     6    1
    13     6     7   ar
    14     7     8   ar
    15     8     9   ar
    16     9    10    1
    17     9    11   ar
    18    11    12   ar
    19    12    13    1
    20     3     4   ar
    21     4    14    1
    22    14    15   ar
    23    15    16   ar
    24    16    17   ar
    25    17    18    1
    26    17    19   ar
    27    19    20   ar
    28     4     5   ar
    29     5    34    1
    30    34    35    1
    31    35    36   ar
    32    36    37   ar
    33    37    38   ar
    34    38    39   ar
    35    24    25   ar
    36    26    27    1
    37    27    28    1
    38    28    29    1
    39    29    26    1
    40    25    21   ar
    41     5     1   ar
    42    39    35   ar
    43    12     6   ar
    44    20    14   ar
@<TRIPOS>MOLECULE
*****
 39 44 0 0 0
SMALL
GASTEIGER

@<TRIPOS>ATOM
      1 C          63.4165   88.2203   12.4924 C.ar    1  UNL1        0.1261
      2 N          62.8739   88.1504   11.0957 N.ar    1  UNL1       -0.1632
      3 N          62.6878   86.7046   10.7425 N.ar    1  UNL1       -0.2290
      4 C          63.1153   85.8808   11.9209 C.ar    1  UNL1        0.0822
      5 C          63.5657   86.8175   13.0024 C.ar    1  UNL1        0.0413
      6 C          62.1657   86.1753    9.4396 C.ar    1  UNL1        0.0933
      7 C          63.0503   85.3424    8.5600 C.ar    1  UNL1        0.0209
      8 C          62.5282   84.8132    7.2572 C.ar    1  UNL1        0.0130
      9 C          61.1216   85.1169    6.8340 C.ar    1  UNL1        0.0586
     10 CL         60.5996   84.5877    5.5311 Cl      1  UNL1       -0.0822
     11 C          60.2370   85.9499    7.7135 C.ar    1  UNL1        0.0243
     12 C          60.7591   86.4791    9.0164 C.ar    1  UNL1        0.0761
     13 CL         59.8745   87.3121    9.8960 Cl      1  UNL1       -0.0806
     14 C          63.0959   84.3832   12.0033 C.ar    1  UNL1        0.0176
     15 C          64.2886   83.5918   11.5548 C.ar    1  UNL1        0.0024
     16 C          64.2692   82.0942   11.6372 C.ar    1  UNL1        0.0114
     17 C          63.0571   81.3879   12.1682 C.ar    1  UNL1        0.0577
     18 CL         63.0377   79.8903   12.2506 Cl      1  UNL1       -0.0822
     19 C          61.8643   82.1793   12.6167 C.ar    1  UNL1        0.0114
     20 C          61.8838   83.6769   12.5342 C.ar    1  UNL1        0.0024
     21 C          64.9679   91.3712   14.1447 C.ar    1  UNL1        0.1185
     22 N          63.5642   91.4298   14.6701 N.ar    1  UNL1       -0.1450
     23 N          62.8122   90.2566   14.1151 N.ar    1  UNL1       -0.1395
     24 C          63.7511   89.4729   13.2467 C.ar    1  UNL1        0.1525
     25 S          65.0834   90.1618   13.2649 S.2     1  UNL1       -0.0480
     26 C          66.0637   92.3501   14.4460 C.3     1  UNL1        0.1301
     27 C          65.7401   92.2623   15.9080 C.3     1  UNL1        0.0145
     28 C          66.8359   93.2413   16.2094 C.3     1  UNL1        0.0014
     29 C          67.1596   93.3291   14.7474 C.3     1  UNL1        0.0145
     30 F          66.7110   92.5258   11.5219 F       1  UNL1       -0.1696
     31 C          66.3874   92.4380   12.9839 C.3     1  UNL1        0.4025
     32 F          67.6868   91.7296   13.2291 F       1  UNL1       -0.1696
     33 F          65.0881   93.1462   12.7389 F       1  UNL1       -0.1696
     34 C          64.0757   86.4211   14.3562 C.3     1  UNL1        0.1587
     35 N          63.6883   85.0972   14.9455 N.ar    1  UNL1       -0.2254
     36 C          64.5506   83.8711   15.0021 C.ar    1  UNL1        0.1975
     37 N          63.7659   82.7831   15.6732 N.ar    1  UNL1       -0.2007
     38 C          62.4186   83.3368   16.0314 C.ar    1  UNL1        0.2210
     39 N          62.3707   84.7670   15.5816 N.ar    1  UNL1       -0.1448
@<TRIPOS>BOND
     1    30    31    1
     2    31    32    1
     3    31    33    1
     4    31    26    1
     5    26    21    1
     6    21    22   ar
     7    22    23   ar
     8    23    24   ar
     9    24     1    1
    10     1     2   ar
    11     2     3   ar
    12     3     6    1
    13     6     7   ar
    14     7     8   ar
    15     8     9   ar
    16     9    10    1
    17     9    11   ar
    18    11    12   ar
    19    12    13    1
    20     3     4   ar
    21     4    14    1
    22    14    15   ar
    23    15    16   ar
    24    16    17   ar
    25    17    18    1
    26    17    19   ar
    27    19    20   ar
    28     4     5   ar
    29     5    34    1
    30    34    35    1
    31    35    36   ar
    32    36    37   ar
    33    37    38   ar
    34    38    39   ar
    35    24    25   ar
    36    26    27    1
    37    27    28    1
    38    28    29    1
    39    29    26    1
    40    25    21   ar
    41     5     1   ar
    42    39    35   ar
    43    12     6   ar
    44    20    14   ar
