@<TRIPOS>MOLECULE
*****
 39 44 0 0 0
SMALL
GASTEIGER

@<TRIPOS>ATOM
      1 N          63.8352   90.0614   13.2071 N.3     1  UNL1       -0.2679
      2 C          64.5680   91.2693   12.7034 C.3     1  UNL1        0.0978
      3 C          64.4039   91.7057   11.2777 C.3     1  UNL1        0.0224
      4 C          65.1367   92.9137   10.7739 C.3     1  UNL1        0.0065
      5 C          66.0336   93.6853   11.6959 C.3     1  UNL1        0.0277
      6 C          66.1978   93.2490   13.1216 C.ar    1  UNL1       -0.0073
      7 C          67.0948   94.0206   14.0436 C.ar    1  UNL1       -0.0015
      8 C          67.2589   93.5843   15.4692 C.ar    1  UNL1        0.0203
      9 C          66.5261   92.3763   15.9730 C.ar    1  UNL1        0.0985
     10 N          65.6292   91.6047   15.0511 N.ar    1  UNL1       -0.2471
     11 C          65.4650   92.0410   13.6254 C.ar    1  UNL1        0.0695
     12 C          64.6009   88.8976   13.7635 C.3     1  UNL1        0.0724
     13 F          62.3617   86.9067   18.6486 F       1  UNL1       -0.2043
     14 C          63.0050   86.6472   17.3187 C.3     1  UNL1        0.2639
     15 F          62.8333   85.2384   17.8043 F       1  UNL1       -0.2043
     16 C          63.5887   85.8984   16.1573 C.3     1  UNL1        0.0666
     17 C          64.1207   86.6485   14.9723 C.3     1  UNL1        0.0070
     18 C          64.0689   88.1475   14.9486 C.3     1  UNL1        0.0164
     19 C          63.4852   88.8962   16.1098 C.3     1  UNL1        0.0070
     20 C          62.9533   88.1461   17.2949 C.3     1  UNL1        0.0666
     21 C          62.3368   90.0171   13.1545 C.3     1  UNL1        0.0886
     22 C          61.6422   89.6216   11.8852 C.3     1  UNL1        0.0749
     23 C          61.8241   88.2401   11.3299 C.3     1  UNL1        0.0444
     24 C          61.1295   87.8446   10.0606 C.ar    1  UNL1       -0.0101
     25 C          60.2531   88.8306    9.3467 C.ar    1  UNL1       -0.0091
     26 C          59.5585   88.4350    8.0773 C.ar    1  UNL1       -0.0032
     27 C          59.7404   87.0536    7.5220 C.ar    1  UNL1        0.0010
     28 C          60.6168   86.0676    8.2359 C.ar    1  UNL1        0.0142
     29 C          61.3114   86.4631    9.5052 C.ar    1  UNL1        0.0436
     30 C          60.0712   90.2120    9.9020 C.3     1  UNL1        0.0954
     31 N          60.7658   90.6075   11.1713 N.3     1  UNL1       -0.2934
     32 H          60.0388   90.8864   11.8302 H       1  UNL1        0.1236
     33 N          62.1878   85.4771   10.2191 N.pl3   1  UNL1       -0.3049
     34 C          63.1705   84.6492    9.4451 C.3     1  UNL1        0.1079
     35 C          64.0470   83.6632   10.1591 C.3     1  UNL1        0.0903
     36 N          63.9407   83.5052   11.6470 N.3     1  UNL1       -0.2946
     37 C          62.9581   84.3331   12.4209 C.3     1  UNL1        0.0903
     38 C          62.0816   85.3190   11.7069 C.3     1  UNL1        0.1079
     39 H          64.8636   83.7079   12.0313 H       1  UNL1        0.1233
@<TRIPOS>BOND
     1    13    14    1
     2    14    15    1
     3    14    16    1
     4    16    17    1
     5    17    18    1
     6    18    12    1
     7    12     1    1
     8     1    21    1
     9    22    21    1
    10    22    23    1
    11    23    24    1
    12    24    25   ar
    13    25    26   ar
    14    26    27   ar
    15    27    28   ar
    16    28    29   ar
    17    29    33    1
    18    33    34    1
    19    34    35    1
    20    35    36    1
    21    36    37    1
    22    37    38    1
    23    25    30    1
    24    30    31    1
    25     2     1    1
    26     2     3    1
    27     3     4    1
    28     4     5    1
    29     5     6    1
    30     6     7   ar
    31     7     8   ar
    32     8     9   ar
    33     9    10   ar
    34    10    11   ar
    35    18    19    1
    36    19    20    1
    37    20    14    1
    38    31    22    1
    39    11     2    1
    40    29    24   ar
    41    38    33    1
    42    11     6   ar
    43    36    39    1
    44    31    32    1
@<TRIPOS>MOLECULE
*****
 39 44 0 0 0
SMALL
GASTEIGER

@<TRIPOS>ATOM
      1 N          62.4155   87.3967   11.9877 N.3     1  UNL1       -0.2679
      2 C          63.1896   86.2884   12.6377 C.3     1  UNL1        0.0978
      3 C          63.6642   86.4350   14.0530 C.3     1  UNL1        0.0224
      4 C          64.4383   85.3267   14.7031 C.3     1  UNL1        0.0065
      5 C          64.7378   84.0719   13.9377 C.3     1  UNL1        0.0277
      6 C          64.2633   83.9254   12.5223 C.ar    1  UNL1       -0.0073
      7 C          64.5628   82.6706   11.7570 C.ar    1  UNL1       -0.0015
      8 C          64.0882   82.5241   10.3416 C.ar    1  UNL1        0.0203
      9 C          63.3141   83.6323    9.6916 C.ar    1  UNL1        0.0985
     10 N          63.0146   84.8871   10.4569 N.ar    1  UNL1       -0.2471
     11 C          63.4892   85.0336   11.8723 C.ar    1  UNL1        0.0695
     12 C          60.9828   87.1827   11.5984 C.3     1  UNL1        0.0724
     13 F          59.2423   89.7645    6.7872 F       1  UNL1       -0.2043
     14 C          59.5296   88.5053    7.5500 C.3     1  UNL1        0.2639
     15 F          59.0748   87.9215    6.2453 F       1  UNL1       -0.2043
     16 C          59.6590   87.0433    7.8596 C.3     1  UNL1        0.0666
     17 C          60.1434   86.6024    9.2091 C.3     1  UNL1        0.0070
     18 C          60.4984   87.6236   10.2489 C.3     1  UNL1        0.0164
     19 C          60.3690   89.0855    9.9393 C.3     1  UNL1        0.0070
     20 C          59.8846   89.5264    8.5899 C.3     1  UNL1        0.0666
     21 C          63.0741   88.7189   11.7269 C.3     1  UNL1        0.0886
     22 C          63.5956   89.5358   12.8718 C.3     1  UNL1        0.0749
     23 C          64.6210   90.6027   12.6262 C.3     1  UNL1        0.0444
     24 C          65.1424   91.4195   13.7711 C.ar    1  UNL1       -0.0101
     25 C          64.6385   91.1695   15.1616 C.ar    1  UNL1       -0.0091
     26 C          65.1600   91.9864   16.3066 C.ar    1  UNL1       -0.0032
     27 C          66.1853   93.0533   16.0609 C.ar    1  UNL1        0.0010
     28 C          66.6892   93.3033   14.6704 C.ar    1  UNL1        0.0142
     29 C          66.1678   92.4865   13.5255 C.ar    1  UNL1        0.0436
     30 C          63.6132   90.1026   15.4073 C.3     1  UNL1        0.0954
     31 N          63.0917   89.2857   14.2624 N.3     1  UNL1       -0.2934
     32 H          62.0813   89.4234   14.2386 H       1  UNL1        0.1236
     33 N          66.6717   92.7365   12.1350 N.pl3   1  UNL1       -0.3049
     34 C          67.7960   91.9099   11.5847 C.3     1  UNL1        0.1079
     35 C          68.2998   92.1599   10.1942 C.3     1  UNL1        0.0903
     36 N          67.6795   93.2367    9.3539 N.3     1  UNL1       -0.2946
     37 C          66.5553   94.0632    9.9042 C.3     1  UNL1        0.0903
     38 C          66.0514   93.8132   11.2948 C.3     1  UNL1        0.1079
     39 H          67.3272   92.7852    8.5098 H       1  UNL1        0.1233
@<TRIPOS>BOND
     1    13    14    1
     2    14    15    1
     3    14    16    1
     4    16    17    1
     5    17    18    1
     6    18    12    1
     7    12     1    1
     8     1    21    1
     9    22    21    1
    10    22    23    1
    11    23    24    1
    12    24    25   ar
    13    25    26   ar
    14    26    27   ar
    15    27    28   ar
    16    28    29   ar
    17    29    33    1
    18    33    34    1
    19    34    35    1
    20    35    36    1
    21    36    37    1
    22    37    38    1
    23    25    30    1
    24    30    31    1
    25     2     1    1
    26     2     3    1
    27     3     4    1
    28     4     5    1
    29     5     6    1
    30     6     7   ar
    31     7     8   ar
    32     8     9   ar
    33     9    10   ar
    34    10    11   ar
    35    18    19    1
    36    19    20    1
    37    20    14    1
    38    31    22    1
    39    11     2    1
    40    29    24   ar
    41    38    33    1
    42    11     6   ar
    43    36    39    1
    44    31    32    1
@<TRIPOS>MOLECULE
*****
 39 44 0 0 0
SMALL
GASTEIGER

@<TRIPOS>ATOM
      1 N          64.0929   89.5118   14.8159 N.3     1  UNL1       -0.2679
      2 C          63.6479   88.4645   15.7932 C.3     1  UNL1        0.0978
      3 C          62.9857   88.8693   17.0767 C.3     1  UNL1        0.0224
      4 C          62.5407   87.8220   18.0539 C.3     1  UNL1        0.0065
      5 C          62.7580   86.3698   17.7477 C.3     1  UNL1        0.0277
      6 C          63.4203   85.9648   16.4641 C.ar    1  UNL1       -0.0073
      7 C          63.6376   84.5126   16.1579 C.ar    1  UNL1       -0.0015
      8 C          64.2999   84.1078   14.8744 C.ar    1  UNL1        0.0203
      9 C          64.7449   85.1551   13.8971 C.ar    1  UNL1        0.0985
     10 N          64.5276   86.6074   14.2033 N.ar    1  UNL1       -0.2471
     11 C          63.8653   87.0122   15.4869 C.ar    1  UNL1        0.0695
     12 C          64.2588   90.9337   15.2641 C.3     1  UNL1        0.0724
     13 F          69.1709   93.7805   16.0442 F       1  UNL1       -0.2043
     14 C          68.3327   92.8445   15.2248 C.3     1  UNL1        0.2639
     15 F          69.5752   92.8844   14.3853 F       1  UNL1       -0.2043
     16 C          67.9261   91.9224   14.1137 C.3     1  UNL1        0.0666
     17 C          66.5681   91.2854   14.1268 C.3     1  UNL1        0.0070
     18 C          65.6168   91.5706   15.2510 C.3     1  UNL1        0.0164
     19 C          66.0234   92.4927   16.3620 C.3     1  UNL1        0.0070
     20 C          67.3814   93.1297   16.3489 C.3     1  UNL1        0.0666
     21 C          64.3720   89.1374   13.3905 C.3     1  UNL1        0.0886
     22 C          63.2687   89.1762   12.3750 C.3     1  UNL1        0.0749
     23 C          62.9123   87.9380   11.6070 C.3     1  UNL1        0.0444
     24 C          61.8090   87.9768   10.5915 C.ar    1  UNL1       -0.0101
     25 C          61.0621   89.2538   10.3441 C.ar    1  UNL1       -0.0091
     26 C          59.9587   89.2926    9.3286 C.ar    1  UNL1       -0.0032
     27 C          59.6024   88.0544    8.5606 C.ar    1  UNL1        0.0010
     28 C          60.3494   86.7774    8.8080 C.ar    1  UNL1        0.0142
     29 C          61.4526   86.7386    9.8235 C.ar    1  UNL1        0.0436
     30 C          61.4184   90.4920   11.1121 C.3     1  UNL1        0.0954
     31 N          62.5217   90.4532   12.1275 N.3     1  UNL1       -0.2934
     32 H          62.1115   90.7318   13.0189 H       1  UNL1        0.1236
     33 N          62.1996   85.4615   10.0709 N.pl3   1  UNL1       -0.3049
     34 C          61.9996   84.7124   11.3551 C.3     1  UNL1        0.1079
     35 C          62.7465   83.4354   11.6025 C.3     1  UNL1        0.0903
     36 N          63.6936   82.9075   10.5659 N.3     1  UNL1       -0.2946
     37 C          63.8936   83.6566    9.2818 C.3     1  UNL1        0.0903
     38 C          63.1466   84.9336    9.0344 C.3     1  UNL1        0.1079
     39 H          63.3652   81.9750   10.3147 H       1  UNL1        0.1233
@<TRIPOS>BOND
     1    13    14    1
     2    14    15    1
     3    14    16    1
     4    16    17    1
     5    17    18    1
     6    18    12    1
     7    12     1    1
     8     1    21    1
     9    22    21    1
    10    22    23    1
    11    23    24    1
    12    24    25   ar
    13    25    26   ar
    14    26    27   ar
    15    27    28   ar
    16    28    29   ar
    17    29    33    1
    18    33    34    1
    19    34    35    1
    20    35    36    1
    21    36    37    1
    22    37    38    1
    23    25    30    1
    24    30    31    1
    25     2     1    1
    26     2     3    1
    27     3     4    1
    28     4     5    1
    29     5     6    1
    30     6     7   ar
    31     7     8   ar
    32     8     9   ar
    33     9    10   ar
    34    10    11   ar
    35    18    19    1
    36    19    20    1
    37    20    14    1
    38    31    22    1
    39    11     2    1
    40    29    24   ar
    41    38    33    1
    42    11     6   ar
    43    36    39    1
    44    31    32    1
@<TRIPOS>MOLECULE
*****
 39 44 0 0 0
SMALL
GASTEIGER

@<TRIPOS>ATOM
      1 N          61.8002   88.0081   10.9333 N.3     1  UNL1       -0.2679
      2 C          60.9563   87.5827    9.7685 C.3     1  UNL1        0.0978
      3 C          59.5874   88.1666    9.5811 C.3     1  UNL1        0.0224
      4 C          58.7435   87.7412    8.4163 C.3     1  UNL1        0.0065
      5 C          59.2685   86.7317    7.4389 C.3     1  UNL1        0.0277
      6 C          60.6374   86.1477    7.6262 C.ar    1  UNL1       -0.0073
      7 C          61.1624   85.1382    6.6488 C.ar    1  UNL1       -0.0015
      8 C          62.5312   84.5542    6.8362 C.ar    1  UNL1        0.0203
      9 C          63.3751   84.9797    8.0011 C.ar    1  UNL1        0.0985
     10 N          62.8501   85.9892    8.9785 N.ar    1  UNL1       -0.2471
     11 C          61.4813   86.5731    8.7911 C.ar    1  UNL1        0.0695
     12 C          61.7599   87.2274   12.2135 C.3     1  UNL1        0.0724
     13 F          65.0311   82.6401   13.2613 F       1  UNL1       -0.2043
     14 C          63.9018   83.2810   12.5103 C.3     1  UNL1        0.2639
     15 F          63.8664   81.9063   11.9109 F       1  UNL1       -0.2043
     16 C          62.7602   83.4444   11.5511 C.3     1  UNL1        0.0666
     17 C          62.0462   84.7599   11.4522 C.3     1  UNL1        0.0070
     18 C          62.4739   85.9119   12.3125 C.3     1  UNL1        0.0164
     19 C          63.6154   85.7484   13.2716 C.3     1  UNL1        0.0070
     20 C          64.3294   84.4330   13.3705 C.3     1  UNL1        0.0666
     21 C          62.6843   89.2143   10.8180 C.3     1  UNL1        0.0886
     22 C          63.2641   89.8401   12.0519 C.3     1  UNL1        0.0749
     23 C          64.3411   90.8771   11.9317 C.3     1  UNL1        0.0444
     24 C          64.9208   91.5028   13.1656 C.ar    1  UNL1       -0.0101
     25 C          64.4235   91.0914   14.5196 C.ar    1  UNL1       -0.0091
     26 C          65.0032   91.7171   15.7535 C.ar    1  UNL1       -0.0032
     27 C          66.0802   92.7542   15.6333 C.ar    1  UNL1        0.0010
     28 C          66.5776   93.1656   14.2793 C.ar    1  UNL1        0.0142
     29 C          65.9979   92.5399   13.0454 C.ar    1  UNL1        0.0436
     30 C          63.3465   90.0543   14.6398 C.3     1  UNL1        0.0954
     31 N          62.7668   89.4287   13.4059 N.3     1  UNL1       -0.2934
     32 H          61.7649   89.6193   13.4220 H       1  UNL1        0.1236
     33 N          66.4952   92.9513   11.6914 N.pl3   1  UNL1       -0.3049
     34 C          67.5600   92.1463   11.0070 C.3     1  UNL1        0.1079
     35 C          68.0573   92.5577    9.6530 C.3     1  UNL1        0.0903
     36 N          67.4898   93.7741    8.9833 N.3     1  UNL1       -0.2946
     37 C          66.4251   94.5790    9.6677 C.3     1  UNL1        0.0903
     38 C          65.9278   94.1676   11.0217 C.3     1  UNL1        0.1079
     39 H          67.0989   93.4649    8.0934 H       1  UNL1        0.1233
@<TRIPOS>BOND
     1    13    14    1
     2    14    15    1
     3    14    16    1
     4    16    17    1
     5    17    18    1
     6    18    12    1
     7    12     1    1
     8     1    21    1
     9    22    21    1
    10    22    23    1
    11    23    24    1
    12    24    25   ar
    13    25    26   ar
    14    26    27   ar
    15    27    28   ar
    16    28    29   ar
    17    29    33    1
    18    33    34    1
    19    34    35    1
    20    35    36    1
    21    36    37    1
    22    37    38    1
    23    25    30    1
    24    30    31    1
    25     2     1    1
    26     2     3    1
    27     3     4    1
    28     4     5    1
    29     5     6    1
    30     6     7   ar
    31     7     8   ar
    32     8     9   ar
    33     9    10   ar
    34    10    11   ar
    35    18    19    1
    36    19    20    1
    37    20    14    1
    38    31    22    1
    39    11     2    1
    40    29    24   ar
    41    38    33    1
    42    11     6   ar
    43    36    39    1
    44    31    32    1
@<TRIPOS>MOLECULE
*****
 39 44 0 0 0
SMALL
GASTEIGER

@<TRIPOS>ATOM
      1 N          64.4885   90.5359   14.1222 N.3     1  UNL1       -0.2679
      2 C          65.3566   91.7560   14.2101 C.3     1  UNL1        0.0978
      3 C          66.0303   92.1056   15.5039 C.3     1  UNL1        0.0224
      4 C          66.8984   93.3256   15.5918 C.3     1  UNL1        0.0065
      5 C          67.0929   94.1962   14.3859 C.3     1  UNL1        0.0277
      6 C          66.4193   93.8467   13.0920 C.ar    1  UNL1       -0.0073
      7 C          66.6138   94.7172   11.8861 C.ar    1  UNL1       -0.0015
      8 C          65.9402   94.3676   10.5923 C.ar    1  UNL1        0.0203
      9 C          65.0720   93.1476   10.5044 C.ar    1  UNL1        0.0985
     10 N          64.8775   92.2770   11.7103 N.ar    1  UNL1       -0.2471
     11 C          65.5511   92.6266   13.0041 C.ar    1  UNL1        0.0695
     12 C          63.5576   90.1951   15.2480 C.3     1  UNL1        0.0724
     13 F          63.7648   84.5832   16.3906 F       1  UNL1       -0.2043
     14 C          63.3090   85.9639   16.7595 C.3     1  UNL1        0.2639
     15 F          62.7263   85.1836   17.9004 F       1  UNL1       -0.2043
     16 C          62.6508   87.0735   17.5247 C.3     1  UNL1        0.0666
     17 C          62.7337   88.4839   17.0209 C.3     1  UNL1        0.0070
     18 C          63.4747   88.7847   15.7519 C.3     1  UNL1        0.0164
     19 C          64.1329   87.6751   14.9867 C.3     1  UNL1        0.0070
     20 C          64.0500   86.2647   15.4905 C.3     1  UNL1        0.0666
     21 C          64.5512   89.6567   12.9086 C.3     1  UNL1        0.0886
     22 C          63.3463   89.5072   12.0277 C.3     1  UNL1        0.0749
     23 C          62.9870   88.1617   11.4704 C.3     1  UNL1        0.0444
     24 C          61.7822   88.0123   10.5895 C.ar    1  UNL1       -0.0101
     25 C          60.9367   89.2083   10.2659 C.ar    1  UNL1       -0.0091
     26 C          59.7318   89.0588    9.3849 C.ar    1  UNL1       -0.0032
     27 C          59.3725   87.7133    8.8276 C.ar    1  UNL1        0.0010
     28 C          60.2180   86.5173    9.1513 C.ar    1  UNL1        0.0142
     29 C          61.4228   86.6668   10.0322 C.ar    1  UNL1        0.0436
     30 C          61.2960   90.5537   10.8231 C.3     1  UNL1        0.0954
     31 N          62.5008   90.7032   11.7040 N.3     1  UNL1       -0.2934
     32 H          62.1709   91.0797   12.5927 H       1  UNL1        0.1236
     33 N          62.2683   85.4708   10.3558 N.pl3   1  UNL1       -0.3049
     34 C          62.2787   84.9144   11.7488 C.3     1  UNL1        0.1079
     35 C          63.1242   83.7184   12.0724 C.3     1  UNL1        0.0903
     36 N          63.9593   83.0788   11.0030 N.3     1  UNL1       -0.2946
     37 C          63.9488   83.6351    9.6101 C.3     1  UNL1        0.0903
     38 C          63.1033   84.8311    9.2865 C.3     1  UNL1        0.1079
     39 H          63.6561   82.1073   10.9344 H       1  UNL1        0.1233
@<TRIPOS>BOND
     1    13    14    1
     2    14    15    1
     3    14    16    1
     4    16    17    1
     5    17    18    1
     6    18    12    1
     7    12     1    1
     8     1    21    1
     9    22    21    1
    10    22    23    1
    11    23    24    1
    12    24    25   ar
    13    25    26   ar
    14    26    27   ar
    15    27    28   ar
    16    28    29   ar
    17    29    33    1
    18    33    34    1
    19    34    35    1
    20    35    36    1
    21    36    37    1
    22    37    38    1
    23    25    30    1
    24    30    31    1
    25     2     1    1
    26     2     3    1
    27     3     4    1
    28     4     5    1
    29     5     6    1
    30     6     7   ar
    31     7     8   ar
    32     8     9   ar
    33     9    10   ar
    34    10    11   ar
    35    18    19    1
    36    19    20    1
    37    20    14    1
    38    31    22    1
    39    11     2    1
    40    29    24   ar
    41    38    33    1
    42    11     6   ar
    43    36    39    1
    44    31    32    1
@<TRIPOS>MOLECULE
*****
 39 44 0 0 0
SMALL
GASTEIGER

@<TRIPOS>ATOM
      1 N          62.9937   85.1370   12.1714 N.3     1  UNL1       -0.2679
      2 C          63.1710   83.7652   11.5911 C.3     1  UNL1        0.0978
      3 C          63.7968   83.5983   10.2382 C.3     1  UNL1        0.0224
      4 C          63.9741   82.2264    9.6580 C.3     1  UNL1        0.0065
      5 C          63.5256   81.0216   10.4307 C.3     1  UNL1        0.0277
      6 C          62.8998   81.1885   11.7837 C.ar    1  UNL1       -0.0073
      7 C          62.4514   79.9836   12.5564 C.ar    1  UNL1       -0.0015
      8 C          61.8256   80.1506   13.9093 C.ar    1  UNL1        0.0203
      9 C          61.6483   81.5224   14.4896 C.ar    1  UNL1        0.0985
     10 N          62.0968   82.7273   13.7169 N.ar    1  UNL1       -0.2471
     11 C          62.7225   82.5603   12.3639 C.ar    1  UNL1        0.0695
     12 C          61.6390   85.7812   12.1734 C.3     1  UNL1        0.0724
     13 F          59.9567   88.0406    7.1827 F       1  UNL1       -0.2043
     14 C          60.2992   88.2140    8.6327 C.3     1  UNL1        0.2639
     15 F          59.9575   89.6300    8.2745 F       1  UNL1       -0.2043
     16 C          60.5230   88.8794    9.9584 C.3     1  UNL1        0.0666
     17 C          60.9696   88.0684   11.1386 C.3     1  UNL1        0.0070
     18 C          61.1924   86.5921   10.9932 C.3     1  UNL1        0.0164
     19 C          60.9686   85.9269    9.6675 C.3     1  UNL1        0.0070
     20 C          60.5220   86.7378    8.4873 C.3     1  UNL1        0.0666
     21 C          64.1710   85.8647   12.7496 C.3     1  UNL1        0.0886
     22 C          63.9697   86.8571   13.8563 C.3     1  UNL1        0.0749
     23 C          64.0660   88.3268   13.5725 C.3     1  UNL1        0.0444
     24 C          63.8647   89.3191   14.6792 C.ar    1  UNL1       -0.0101
     25 C          63.5671   88.8416   16.0697 C.ar    1  UNL1       -0.0091
     26 C          63.3658   89.8340   17.1764 C.ar    1  UNL1       -0.0032
     27 C          63.4621   91.3037   16.8926 C.ar    1  UNL1        0.0010
     28 C          63.7597   91.7812   15.5021 C.ar    1  UNL1        0.0142
     29 C          63.9610   90.7889   14.3954 C.ar    1  UNL1        0.0436
     30 C          63.4708   87.3719   16.3535 C.3     1  UNL1        0.0954
     31 N          63.6721   86.3796   15.2468 N.3     1  UNL1       -0.2934
     32 H          62.8188   85.8237   15.1909 H       1  UNL1        0.1236
     33 N          64.2586   91.2664   13.0049 N.pl3   1  UNL1       -0.3049
     34 C          65.5031   92.0589   12.7343 C.3     1  UNL1        0.1079
     35 C          65.8007   92.5363   11.3438 C.3     1  UNL1        0.0903
     36 N          64.8537   92.2213   10.2239 N.3     1  UNL1       -0.2946
     37 C          63.6093   91.4288   10.4945 C.3     1  UNL1        0.0903
     38 C          63.3117   90.9513   11.8850 C.3     1  UNL1        0.1079
     39 H          65.3863   91.7035    9.5249 H       1  UNL1        0.1233
@<TRIPOS>BOND
     1    13    14    1
     2    14    15    1
     3    14    16    1
     4    16    17    1
     5    17    18    1
     6    18    12    1
     7    12     1    1
     8     1    21    1
     9    22    21    1
    10    22    23    1
    11    23    24    1
    12    24    25   ar
    13    25    26   ar
    14    26    27   ar
    15    27    28   ar
    16    28    29   ar
    17    29    33    1
    18    33    34    1
    19    34    35    1
    20    35    36    1
    21    36    37    1
    22    37    38    1
    23    25    30    1
    24    30    31    1
    25     2     1    1
    26     2     3    1
    27     3     4    1
    28     4     5    1
    29     5     6    1
    30     6     7   ar
    31     7     8   ar
    32     8     9   ar
    33     9    10   ar
    34    10    11   ar
    35    18    19    1
    36    19    20    1
    37    20    14    1
    38    31    22    1
    39    11     2    1
    40    29    24   ar
    41    38    33    1
    42    11     6   ar
    43    36    39    1
    44    31    32    1
@<TRIPOS>MOLECULE
*****
 39 44 0 0 0
SMALL
GASTEIGER

@<TRIPOS>ATOM
      1 N          63.0296   87.5523   12.2717 N.3     1  UNL1       -0.2679
      2 C          62.5596   86.7970   11.0640 C.3     1  UNL1        0.0978
      3 C          63.0502   85.4018   10.8141 C.3     1  UNL1        0.0224
      4 C          62.5802   84.6465    9.6063 C.3     1  UNL1        0.0065
      5 C          61.6196   85.2866    8.6484 C.3     1  UNL1        0.0277
      6 C          61.1289   86.6819    8.8983 C.ar    1  UNL1       -0.0073
      7 C          60.1683   87.3219    7.9405 C.ar    1  UNL1       -0.0015
      8 C          59.6777   88.7172    8.1904 C.ar    1  UNL1        0.0203
      9 C          60.1477   89.4724    9.3982 C.ar    1  UNL1        0.0985
     10 N          61.1083   88.8324   10.3560 N.ar    1  UNL1       -0.2471
     11 C          61.5989   87.4371   10.1061 C.ar    1  UNL1        0.0695
     12 C          63.7641   86.8353   13.3657 C.3     1  UNL1        0.0724
     13 F          62.0520   81.5197   14.6521 F       1  UNL1       -0.2043
     14 C          63.0651   82.4415   14.0406 C.3     1  UNL1        0.2639
     15 F          63.7212   81.1192   13.7738 F       1  UNL1       -0.2043
     16 C          64.3062   82.9040   13.3364 C.3     1  UNL1        0.0666
     17 C          64.5392   84.3686   13.1114 C.3     1  UNL1        0.0070
     18 C          63.5311   85.3707   13.5907 C.3     1  UNL1        0.0164
     19 C          62.2901   84.9082   14.2949 C.3     1  UNL1        0.0070
     20 C          62.0571   83.4436   14.5198 C.3     1  UNL1        0.0666
     21 C          62.7652   89.0243   12.3856 C.3     1  UNL1        0.0886
     22 C          63.4775   89.8360   13.4268 C.3     1  UNL1        0.0749
     23 C          64.5841   90.7657   13.0255 C.3     1  UNL1        0.0444
     24 C          65.2964   91.5772   14.0667 C.ar    1  UNL1       -0.0101
     25 C          64.9019   91.4592   15.5090 C.ar    1  UNL1       -0.0091
     26 C          65.6142   92.2708   16.5502 C.ar    1  UNL1       -0.0032
     27 C          66.7209   93.2005   16.1490 C.ar    1  UNL1        0.0010
     28 C          67.1153   93.3186   14.7066 C.ar    1  UNL1        0.0142
     29 C          66.4031   92.5070   13.6654 C.ar    1  UNL1        0.0436
     30 C          63.7953   90.5295   15.9103 C.3     1  UNL1        0.0954
     31 N          63.0831   89.7179   14.8692 N.3     1  UNL1       -0.2934
     32 H          62.0957   89.9676   14.9258 H       1  UNL1        0.1236
     33 N          66.7975   92.6250   12.2230 N.pl3   1  UNL1       -0.3049
     34 C          67.9227   91.7931   11.6827 C.3     1  UNL1        0.1079
     35 C          68.3171   91.9112   10.2403 C.3     1  UNL1        0.0903
     36 N          67.5863   92.8612    9.3382 N.3     1  UNL1       -0.2946
     37 C          66.4612   93.6930    9.8786 C.3     1  UNL1        0.0903
     38 C          66.0668   93.5750   11.3210 C.3     1  UNL1        0.1079
     39 H          67.2010   92.3050    8.5749 H       1  UNL1        0.1233
@<TRIPOS>BOND
     1    13    14    1
     2    14    15    1
     3    14    16    1
     4    16    17    1
     5    17    18    1
     6    18    12    1
     7    12     1    1
     8     1    21    1
     9    22    21    1
    10    22    23    1
    11    23    24    1
    12    24    25   ar
    13    25    26   ar
    14    26    27   ar
    15    27    28   ar
    16    28    29   ar
    17    29    33    1
    18    33    34    1
    19    34    35    1
    20    35    36    1
    21    36    37    1
    22    37    38    1
    23    25    30    1
    24    30    31    1
    25     2     1    1
    26     2     3    1
    27     3     4    1
    28     4     5    1
    29     5     6    1
    30     6     7   ar
    31     7     8   ar
    32     8     9   ar
    33     9    10   ar
    34    10    11   ar
    35    18    19    1
    36    19    20    1
    37    20    14    1
    38    31    22    1
    39    11     2    1
    40    29    24   ar
    41    38    33    1
    42    11     6   ar
    43    36    39    1
    44    31    32    1
@<TRIPOS>MOLECULE
*****
 39 44 0 0 0
SMALL
GASTEIGER

@<TRIPOS>ATOM
      1 N          64.2588   91.2395   12.9335 N.3     1  UNL1       -0.2679
      2 C          64.7317   91.6228   14.3044 C.3     1  UNL1        0.0978
      3 C          63.7563   91.6938   15.4417 C.3     1  UNL1        0.0224
      4 C          64.2292   92.0770   16.8126 C.3     1  UNL1        0.0065
      5 C          65.6776   92.3892   17.0463 C.3     1  UNL1        0.0277
      6 C          66.6531   92.3182   15.9090 C.ar    1  UNL1       -0.0073
      7 C          68.1015   92.6305   16.1426 C.ar    1  UNL1       -0.0015
      8 C          69.0770   92.5595   15.0054 C.ar    1  UNL1        0.0203
      9 C          68.6040   92.1762   13.6344 C.ar    1  UNL1        0.0985
     10 N          67.1556   91.8640   13.4008 N.ar    1  UNL1       -0.2471
     11 C          66.1802   91.9350   14.5381 C.ar    1  UNL1        0.0695
     12 C          64.1265   92.2853   11.8662 C.3     1  UNL1        0.0724
     13 F          68.9886   93.1429    8.9564 F       1  UNL1       -0.2043
     14 C          67.7708   93.6964    9.6351 C.3     1  UNL1        0.2639
     15 F          68.4143   94.9707    9.1744 F       1  UNL1       -0.2043
     16 C          66.7766   94.6926   10.1539 C.3     1  UNL1        0.0666
     17 C          65.5618   94.2223   10.8976 C.3     1  UNL1        0.0070
     18 C          65.3413   92.7557   11.1225 C.3     1  UNL1        0.0164
     19 C          66.3355   91.7595   10.6037 C.3     1  UNL1        0.0070
     20 C          67.5503   92.2299    9.8600 C.3     1  UNL1        0.0666
     21 C          63.9181   89.8107   12.6298 C.3     1  UNL1        0.0886
     22 C          62.8888   89.4904   11.5867 C.3     1  UNL1        0.0749
     23 C          62.7045   88.0754   11.1244 C.3     1  UNL1        0.0444
     24 C          61.6753   87.7553   10.0813 C.ar    1  UNL1       -0.0101
     25 C          60.8302   88.8501    9.5006 C.ar    1  UNL1       -0.0091
     26 C          59.8009   88.5298    8.4574 C.ar    1  UNL1       -0.0032
     27 C          59.6167   87.1148    7.9951 C.ar    1  UNL1        0.0010
     28 C          60.4617   86.0200    8.5759 C.ar    1  UNL1        0.0142
     29 C          61.4910   86.3402    9.6190 C.ar    1  UNL1        0.0436
     30 C          61.0145   90.2651    9.9629 C.3     1  UNL1        0.0954
     31 N          62.0437   90.5853   11.0059 N.3     1  UNL1       -0.2934
     32 H          61.5485   91.0196   11.7847 H       1  UNL1        0.1236
     33 N          62.3360   85.2454   10.1998 N.pl3   1  UNL1       -0.3049
     34 C          63.2798   84.4798    9.3204 C.3     1  UNL1        0.1079
     35 C          64.1248   83.3850    9.9012 C.3     1  UNL1        0.0903
     36 N          64.0260   83.0557   11.3613 N.3     1  UNL1       -0.2946
     37 C          63.0823   83.8213   12.2406 C.3     1  UNL1        0.0903
     38 C          62.2373   84.9161   11.6598 C.3     1  UNL1        0.1079
     39 H          64.9593   83.1777   11.7544 H       1  UNL1        0.1233
@<TRIPOS>BOND
     1    13    14    1
     2    14    15    1
     3    14    16    1
     4    16    17    1
     5    17    18    1
     6    18    12    1
     7    12     1    1
     8     1    21    1
     9    22    21    1
    10    22    23    1
    11    23    24    1
    12    24    25   ar
    13    25    26   ar
    14    26    27   ar
    15    27    28   ar
    16    28    29   ar
    17    29    33    1
    18    33    34    1
    19    34    35    1
    20    35    36    1
    21    36    37    1
    22    37    38    1
    23    25    30    1
    24    30    31    1
    25     2     1    1
    26     2     3    1
    27     3     4    1
    28     4     5    1
    29     5     6    1
    30     6     7   ar
    31     7     8   ar
    32     8     9   ar
    33     9    10   ar
    34    10    11   ar
    35    18    19    1
    36    19    20    1
    37    20    14    1
    38    31    22    1
    39    11     2    1
    40    29    24   ar
    41    38    33    1
    42    11     6   ar
    43    36    39    1
    44    31    32    1
