@<TRIPOS>MOLECULE
*****
 23 26 0 0 0
SMALL
GASTEIGER

@<TRIPOS>ATOM
      1 C          63.0024   85.4937   12.5430 C.ar    1  UNL1       -0.0003
      2 C          63.7170   86.2442   13.6274 C.ar    1  UNL1       -0.0000
      3 C          63.8335   87.7379   13.5544 C.ar    1  UNL1       -0.0003
      4 C          63.2353   88.4810   12.3968 C.ar    1  UNL1       -0.0043
      5 C          62.5207   87.7306   11.3124 C.ar    1  UNL1       -0.0218
      6 C          62.4043   86.2369   11.3854 C.ar    1  UNL1       -0.0043
      7 C          61.9225   88.4738   10.1549 C.3     1  UNL1        0.0310
      8 C          62.0389   89.9674   10.0818 C.3     1  UNL1        0.0307
      9 C          62.7536   90.7180   11.1663 C.2     1  UNL1       -0.0258
     10 C          63.3517   89.9748   12.3238 C.2     1  UNL1       -0.0045
     11 F          62.5367   79.5189   12.8349 F       1  UNL1       -0.2042
     12 C          62.6531   81.0126   12.7620 C.ar    1  UNL1        0.1401
     13 C          62.4416   81.8424   13.9935 C.ar    1  UNL1        0.0296
     14 C          62.5580   83.3362   13.9205 C.ar    1  UNL1        0.0023
     15 C          62.8860   84.0000   12.6160 C.ar    1  UNL1        0.0001
     16 C          63.0975   83.1702   11.3845 C.ar    1  UNL1        0.0023
     17 C          62.9811   81.6765   11.4574 C.ar    1  UNL1        0.0296
     18 C          64.0663   90.7253   13.4083 C.ar    1  UNL1        0.0028
     19 C          63.5825   90.6372   14.8254 C.ar    1  UNL1        0.0207
     20 C          64.2972   91.3878   15.9099 C.ar    1  UNL1        0.0989
     21 N          65.4956   92.2263   15.5772 N.ar    1  UNL1       -0.2423
     22 C          65.9794   92.3143   14.1601 C.ar    1  UNL1        0.0989
     23 C          65.2648   91.5638   13.0757 C.ar    1  UNL1        0.0207
@<TRIPOS>BOND
     1    11    12    1
     2    12    13   ar
     3    13    14   ar
     4    14    15   ar
     5    15     1    1
     6     1     2   ar
     7     2     3   ar
     8     3     4   ar
     9     4     5   ar
    10     5     6   ar
    11     5     7    1
    12     7     8    1
    13     8     9    1
    14     9    10    2
    15    10    18    1
    16    18    19   ar
    17    19    20   ar
    18    20    21   ar
    19    21    22   ar
    20    22    23   ar
    21    15    16   ar
    22    16    17   ar
    23    17    12   ar
    24     6     1   ar
    25    23    18   ar
    26    10     4    1
@<TRIPOS>MOLECULE
*****
 23 26 0 0 0
SMALL
GASTEIGER

@<TRIPOS>ATOM
      1 C          63.5498   85.9061   13.4699 C.ar    1  UNL1       -0.0003
      2 C          64.2909   86.6321   14.5532 C.ar    1  UNL1       -0.0000
      3 C          64.4580   88.1209   14.4795 C.ar    1  UNL1       -0.0003
      4 C          63.8839   88.8838   13.3226 C.ar    1  UNL1       -0.0043
      5 C          63.1428   88.1577   12.2393 C.ar    1  UNL1       -0.0218
      6 C          62.9757   86.6689   12.3130 C.ar    1  UNL1       -0.0043
      7 C          62.5687   88.9206   11.0823 C.3     1  UNL1        0.0310
      8 C          62.7358   90.4094   11.0087 C.3     1  UNL1        0.0307
      9 C          63.4769   91.1355   12.0920 C.2     1  UNL1       -0.0258
     10 C          64.0510   90.3727   13.2490 C.2     1  UNL1       -0.0045
     11 F          62.8814   79.9507   13.7645 F       1  UNL1       -0.2042
     12 C          63.0485   81.4395   13.6908 C.ar    1  UNL1        0.1401
     13 C          64.0489   82.0361   12.7457 C.ar    1  UNL1        0.0296
     14 C          64.2160   83.5250   12.6721 C.ar    1  UNL1        0.0023
     15 C          63.3827   84.4172   13.5435 C.ar    1  UNL1        0.0001
     16 C          62.3823   83.8206   14.4887 C.ar    1  UNL1        0.0023
     17 C          62.2152   82.3318   14.5623 C.ar    1  UNL1        0.0296
     18 C          64.7922   91.0987   14.3323 C.ar    1  UNL1        0.0028
     19 C          66.2207   91.5047   14.1213 C.ar    1  UNL1        0.0207
     20 C          66.9618   92.2308   15.2047 C.ar    1  UNL1        0.0989
     21 N          66.2744   92.5507   16.4989 N.ar    1  UNL1       -0.2423
     22 C          64.8459   92.1446   16.7099 C.ar    1  UNL1        0.0989
     23 C          64.1048   91.4186   15.6266 C.ar    1  UNL1        0.0207
@<TRIPOS>BOND
     1    11    12    1
     2    12    13   ar
     3    13    14   ar
     4    14    15   ar
     5    15     1    1
     6     1     2   ar
     7     2     3   ar
     8     3     4   ar
     9     4     5   ar
    10     5     6   ar
    11     5     7    1
    12     7     8    1
    13     8     9    1
    14     9    10    2
    15    10    18    1
    16    18    19   ar
    17    19    20   ar
    18    20    21   ar
    19    21    22   ar
    20    22    23   ar
    21    15    16   ar
    22    16    17   ar
    23    17    12   ar
    24     6     1   ar
    25    23    18   ar
    26    10     4    1
@<TRIPOS>MOLECULE
*****
 23 26 0 0 0
SMALL
GASTEIGER

@<TRIPOS>ATOM
      1 C          62.9025   90.2482   10.7883 C.ar    1  UNL1       -0.0003
      2 C          63.3828   91.3641    9.9085 C.ar    1  UNL1       -0.0000
      3 C          64.3896   92.3476   10.4271 C.ar    1  UNL1       -0.0003
      4 C          64.9160   92.2152   11.8254 C.ar    1  UNL1       -0.0043
      5 C          64.4357   91.0993   12.7052 C.ar    1  UNL1       -0.0218
      6 C          63.4289   90.1158   12.1866 C.ar    1  UNL1       -0.0043
      7 C          64.9622   90.9670   14.1035 C.3     1  UNL1        0.0310
      8 C          65.9690   91.9505   14.6221 C.3     1  UNL1        0.0307
      9 C          66.4494   93.0665   13.7423 C.2     1  UNL1       -0.0258
     10 C          65.9229   93.1988   12.3440 C.2     1  UNL1       -0.0045
     11 F          58.8752   86.3137    8.7141 F       1  UNL1       -0.2042
     12 C          59.8820   87.2973    9.2326 C.ar    1  UNL1        0.1401
     13 C          59.8663   88.7152    8.7432 C.ar    1  UNL1        0.0296
     14 C          60.8731   89.6988    9.2618 C.ar    1  UNL1        0.0023
     15 C          61.8956   89.2645   10.2697 C.ar    1  UNL1        0.0001
     16 C          61.9113   87.8467   10.7591 C.ar    1  UNL1        0.0023
     17 C          60.9046   86.8631   10.2406 C.ar    1  UNL1        0.0296
     18 C          66.4032   94.3147   11.4643 C.ar    1  UNL1        0.0028
     19 C          67.1892   94.0070   10.2243 C.ar    1  UNL1        0.0207
     20 C          67.6695   95.1230    9.3445 C.ar    1  UNL1        0.0989
     21 N          67.3639   96.5466    9.7048 N.ar    1  UNL1       -0.2423
     22 C          66.5780   96.8544   10.9448 C.ar    1  UNL1        0.0989
     23 C          66.0976   95.7385   11.8245 C.ar    1  UNL1        0.0207
@<TRIPOS>BOND
     1    11    12    1
     2    12    13   ar
     3    13    14   ar
     4    14    15   ar
     5    15     1    1
     6     1     2   ar
     7     2     3   ar
     8     3     4   ar
     9     4     5   ar
    10     5     6   ar
    11     5     7    1
    12     7     8    1
    13     8     9    1
    14     9    10    2
    15    10    18    1
    16    18    19   ar
    17    19    20   ar
    18    20    21   ar
    19    21    22   ar
    20    22    23   ar
    21    15    16   ar
    22    16    17   ar
    23    17    12   ar
    24     6     1   ar
    25    23    18   ar
    26    10     4    1
@<TRIPOS>MOLECULE
*****
 23 26 0 0 0
SMALL
GASTEIGER

@<TRIPOS>ATOM
      1 C          64.1985   90.0393   13.0181 C.ar    1  UNL1       -0.0003
      2 C          63.3593   90.4525   11.8456 C.ar    1  UNL1       -0.0000
      3 C          62.5289   89.4345   11.1218 C.ar    1  UNL1       -0.0003
      4 C          62.5376   88.0032   11.5706 C.ar    1  UNL1       -0.0043
      5 C          63.3767   87.5900   12.7431 C.ar    1  UNL1       -0.0218
      6 C          64.2072   88.6080   13.4669 C.ar    1  UNL1       -0.0043
      7 C          63.3854   86.1587   13.1919 C.3     1  UNL1        0.0310
      8 C          62.5550   85.1407   12.4681 C.3     1  UNL1        0.0307
      9 C          61.7157   85.5539   11.2955 C.2     1  UNL1       -0.0258
     10 C          61.7070   86.9852   10.8467 C.2     1  UNL1       -0.0045
     11 F          67.5205   94.1113   15.9136 F       1  UNL1       -0.2042
     12 C          66.6900   93.0933   15.1897 C.ar    1  UNL1        0.1401
     13 C          66.8434   92.9166   13.7081 C.ar    1  UNL1        0.0296
     14 C          66.0129   91.8986   12.9842 C.ar    1  UNL1        0.0023
     15 C          65.0290   91.0573   13.7420 C.ar    1  UNL1        0.0001
     16 C          64.8756   91.2340   15.2236 C.ar    1  UNL1        0.0023
     17 C          65.7061   92.2520   15.9475 C.ar    1  UNL1        0.0296
     18 C          60.8679   87.3984    9.6741 C.ar    1  UNL1        0.0028
     19 C          60.6400   88.8537    9.3906 C.ar    1  UNL1        0.0207
     20 C          59.8008   89.2669    8.2180 C.ar    1  UNL1        0.0989
     21 N          59.1895   88.2249    7.3289 N.ar    1  UNL1       -0.2423
     22 C          59.4174   86.7697    7.6124 C.ar    1  UNL1        0.0989
     23 C          60.2565   86.3564    8.7849 C.ar    1  UNL1        0.0207
@<TRIPOS>BOND
     1    11    12    1
     2    12    13   ar
     3    13    14   ar
     4    14    15   ar
     5    15     1    1
     6     1     2   ar
     7     2     3   ar
     8     3     4   ar
     9     4     5   ar
    10     5     6   ar
    11     5     7    1
    12     7     8    1
    13     8     9    1
    14     9    10    2
    15    10    18    1
    16    18    19   ar
    17    19    20   ar
    18    20    21   ar
    19    21    22   ar
    20    22    23   ar
    21    15    16   ar
    22    16    17   ar
    23    17    12   ar
    24     6     1   ar
    25    23    18   ar
    26    10     4    1
@<TRIPOS>MOLECULE
*****
 23 26 0 0 0
SMALL
GASTEIGER

@<TRIPOS>ATOM
      1 C          63.0540   90.2211   10.9730 C.ar    1  UNL1       -0.0003
      2 C          63.6399   89.9531   12.3275 C.ar    1  UNL1       -0.0000
      3 C          64.6591   90.8913   12.9027 C.ar    1  UNL1       -0.0003
      4 C          65.0924   92.0975   12.1234 C.ar    1  UNL1       -0.0043
      5 C          64.5064   92.3655   10.7689 C.ar    1  UNL1       -0.0218
      6 C          63.4872   91.4273   10.1937 C.ar    1  UNL1       -0.0043
      7 C          64.9397   93.5717    9.9896 C.3     1  UNL1        0.0310
      8 C          65.9589   94.5100   10.5648 C.3     1  UNL1        0.0307
      9 C          66.5449   94.2420   11.9194 C.2     1  UNL1       -0.0258
     10 C          66.1117   93.0358   12.6987 C.2     1  UNL1       -0.0045
     11 F          58.9770   86.4683    8.6719 F       1  UNL1       -0.2042
     12 C          59.9962   87.4065    9.2471 C.ar    1  UNL1        0.1401
     13 C          61.0351   86.8929   10.1995 C.ar    1  UNL1        0.0296
     14 C          62.0544   87.8312   10.7748 C.ar    1  UNL1        0.0023
     15 C          62.0347   89.2828   10.3977 C.ar    1  UNL1        0.0001
     16 C          60.9958   89.7964    9.4453 C.ar    1  UNL1        0.0023
     17 C          59.9766   88.8582    8.8701 C.ar    1  UNL1        0.0296
     18 C          66.6976   92.7677   14.0532 C.ar    1  UNL1        0.0028
     19 C          68.1555   92.4418   14.1886 C.ar    1  UNL1        0.0207
     20 C          68.7415   92.1738   15.5432 C.ar    1  UNL1        0.0989
     21 N          67.8695   92.2317   16.7624 N.ar    1  UNL1       -0.2423
     22 C          66.4116   92.5576   16.6270 C.ar    1  UNL1        0.0989
     23 C          65.8257   92.8257   15.2724 C.ar    1  UNL1        0.0207
@<TRIPOS>BOND
     1    11    12    1
     2    12    13   ar
     3    13    14   ar
     4    14    15   ar
     5    15     1    1
     6     1     2   ar
     7     2     3   ar
     8     3     4   ar
     9     4     5   ar
    10     5     6   ar
    11     5     7    1
    12     7     8    1
    13     8     9    1
    14     9    10    2
    15    10    18    1
    16    18    19   ar
    17    19    20   ar
    18    20    21   ar
    19    21    22   ar
    20    22    23   ar
    21    15    16   ar
    22    16    17   ar
    23    17    12   ar
    24     6     1   ar
    25    23    18   ar
    26    10     4    1
@<TRIPOS>MOLECULE
*****
 23 26 0 0 0
SMALL
GASTEIGER

@<TRIPOS>ATOM
      1 C          62.4128   89.3060   10.5109 C.ar    1  UNL1       -0.0003
      2 C          62.8657   90.6022    9.9071 C.ar    1  UNL1       -0.0000
      3 C          63.7658   91.5171   10.6834 C.ar    1  UNL1       -0.0003
      4 C          64.2129   91.1359   12.0635 C.ar    1  UNL1       -0.0043
      5 C          63.7600   89.8397   12.6673 C.ar    1  UNL1       -0.0218
      6 C          62.8599   88.9247   11.8910 C.ar    1  UNL1       -0.0043
      7 C          64.2071   89.4584   14.0474 C.3     1  UNL1        0.0310
      8 C          65.1072   90.3734   14.8237 C.3     1  UNL1        0.0307
      9 C          65.5602   91.6696   14.2199 C.2     1  UNL1       -0.0258
     10 C          65.1131   92.0509   12.8398 C.2     1  UNL1       -0.0045
     11 F          58.8124   85.6459    7.4058 F       1  UNL1       -0.2042
     12 C          59.7125   86.5609    8.1820 C.ar    1  UNL1        0.1401
     13 C          59.2096   87.8987    8.6374 C.ar    1  UNL1        0.0296
     14 C          60.1097   88.8138    9.4137 C.ar    1  UNL1        0.0023
     15 C          61.5126   88.3909    9.7346 C.ar    1  UNL1        0.0001
     16 C          62.0155   87.0531    9.2792 C.ar    1  UNL1        0.0023
     17 C          61.1155   86.1381    8.5030 C.ar    1  UNL1        0.0296
     18 C          65.5660   93.3471   12.2359 C.ar    1  UNL1        0.0028
     19 C          66.1786   94.4056   13.1045 C.ar    1  UNL1        0.0207
     20 C          66.6316   95.7018   12.5006 C.ar    1  UNL1        0.0989
     21 N          66.4719   95.9396   11.0282 N.ar    1  UNL1       -0.2423
     22 C          65.8593   94.8811   10.1597 C.ar    1  UNL1        0.0989
     23 C          65.4063   93.5849   10.7635 C.ar    1  UNL1        0.0207
@<TRIPOS>BOND
     1    11    12    1
     2    12    13   ar
     3    13    14   ar
     4    14    15   ar
     5    15     1    1
     6     1     2   ar
     7     2     3   ar
     8     3     4   ar
     9     4     5   ar
    10     5     6   ar
    11     5     7    1
    12     7     8    1
    13     8     9    1
    14     9    10    2
    15    10    18    1
    16    18    19   ar
    17    19    20   ar
    18    20    21   ar
    19    21    22   ar
    20    22    23   ar
    21    15    16   ar
    22    16    17   ar
    23    17    12   ar
    24     6     1   ar
    25    23    18   ar
    26    10     4    1
