@<TRIPOS>MOLECULE
*****
 50 56 0 0 0
SMALL
GASTEIGER

@<TRIPOS>ATOM
      1 C          63.2081   87.5738   16.8239 C.ar    1  UNL1        0.1214
      2 N          62.9506   88.9085   17.4582 N.ar    1  UNL1       -0.2198
      3 C          63.6096   89.9581   16.6131 C.ar    1  UNL1        0.1536
      4 CL         63.6047   91.4345   16.8781 Cl      1  UNL1       -0.0600
      5 C          64.2744   89.2720   15.4567 C.ar    1  UNL1        0.0971
      6 N          64.0262   87.7984   15.5870 N.ar    1  UNL1       -0.3113
      7 C          62.7311   86.2473   17.3367 C.3     1  UNL1        0.0640
      8 C          62.1051   85.2606   16.3960 C.3     1  UNL1        0.0079
      9 C          62.2713   83.0694   15.0103 C.3     1  UNL1        0.0000
     10 C          62.8147   83.9796   16.0714 C.3     1  UNL1        0.0005
     11 C          65.0511   89.9419   14.3621 C.3     1  UNL1        0.1890
     12 O          64.9756   91.4303   14.1917 O.3     1  UNL1       -0.3400
     13 C          65.6686   92.0889   13.0359 C.3     1  UNL1        0.1494
     14 C          66.8232   92.4386   13.9274 C.ar    1  UNL1        0.0098
     15 C          68.1960   91.9217   13.6142 C.ar    1  UNL1       -0.0014
     16 C          69.3505   92.2714   14.5058 C.ar    1  UNL1       -0.0002
     17 C          69.1321   93.1380   15.7105 C.ar    1  UNL1       -0.0000
     18 C          67.7593   93.6549   16.0237 C.ar    1  UNL1       -0.0002
     19 C          66.6048   93.3052   15.1321 C.ar    1  UNL1       -0.0014
     20 C          64.5141   91.7392   12.1444 C.ar    1  UNL1        0.0098
     21 C          64.6388   91.8993   10.6581 C.ar    1  UNL1       -0.0014
     22 C          63.4843   91.5496    9.7667 C.ar    1  UNL1       -0.0002
     23 C          62.2050   91.0398   10.3614 C.ar    1  UNL1       -0.0000
     24 C          62.0803   90.8797   11.8476 C.ar    1  UNL1       -0.0002
     25 C          63.2349   91.2294   12.7391 C.ar    1  UNL1       -0.0014
     26 C          66.3616   92.7475   11.8801 C.ar    1  UNL1        0.0098
     27 C          67.2884   91.9521   11.0091 C.ar    1  UNL1       -0.0014
     28 C          67.9814   92.6107    9.8533 C.ar    1  UNL1       -0.0002
     29 C          67.7476   94.0647    9.5683 C.ar    1  UNL1       -0.0000
     30 C          66.8209   94.8601   10.4392 C.ar    1  UNL1       -0.0002
     31 C          66.1279   94.2015   11.5951 C.ar    1  UNL1       -0.0014
     32 C          64.5111   86.7360   14.6456 C.3     1  UNL1        0.1337
     33 C          63.8408   86.5486   13.3168 C.ar    1  UNL1        0.0004
     34 C          63.4368   87.7437   12.5054 C.ar    1  UNL1       -0.0024
     35 C          62.7665   87.5562   11.1766 C.ar    1  UNL1       -0.0003
     36 C          62.5003   86.1737   10.6593 C.ar    1  UNL1        0.0001
     37 C          62.9043   84.9785   11.4708 C.ar    1  UNL1       -0.0003
     38 C          63.5746   85.1661   12.7995 C.ar    1  UNL1       -0.0024
     39 C          61.8300   85.9862    9.3306 C.ar    1  UNL1        0.0030
     40 C          62.3833   85.0012    8.3438 C.ar    1  UNL1        0.0001
     41 C          61.7130   84.8137    7.0151 C.ar    1  UNL1        0.0000
     42 C          60.4895   85.6113    6.6730 C.ar    1  UNL1        0.0001
     43 C          59.9362   86.5963    7.6598 C.ar    1  UNL1        0.0031
     44 C          60.6066   86.7838    8.9886 C.ar    1  UNL1        0.0371
     45 C          60.0533   87.7688    9.9753 C.ar    1  UNL1        0.1806
     46 N          59.6461   89.1813    9.6772 N.ar    1  UNL1       -0.1084
     47 N          59.1513   89.7997   10.9511 N.ar    1  UNL1       -0.0229
     48 N          59.2527   88.7694   12.0364 N.ar    1  UNL1       -0.0464
     49 N          59.8101   87.5142   11.4334 N.ar    1  UNL1       -0.2388
     50 H          59.9856   86.6712   11.9108 H       1  UNL1        0.1923
@<TRIPOS>BOND
     1     9    10    1
     2    10     8    1
     3     8     7    1
     4     7     1    1
     5     1     2   ar
     6     2     3   ar
     7     3     4    1
     8     3     5   ar
     9     5    11    1
    10    11    12    1
    11    12    13    1
    12    13    14    1
    13    14    15   ar
    14    15    16   ar
    15    16    17   ar
    16    17    18   ar
    17    18    19   ar
    18    13    20    1
    19    20    21   ar
    20    21    22   ar
    21    22    23   ar
    22    23    24   ar
    23    24    25   ar
    24    13    26    1
    25    26    27   ar
    26    27    28   ar
    27    28    29   ar
    28    29    30   ar
    29    30    31   ar
    30     5     6   ar
    31     6    32    1
    32    32    33    1
    33    33    34   ar
    34    34    35   ar
    35    35    36   ar
    36    36    39    1
    37    39    40   ar
    38    40    41   ar
    39    41    42   ar
    40    42    43   ar
    41    43    44   ar
    42    44    45    1
    43    45    46   ar
    44    46    47   ar
    45    47    48   ar
    46    48    49   ar
    47    36    37   ar
    48    37    38   ar
    49     6     1   ar
    50    38    33   ar
    51    19    14   ar
    52    25    20   ar
    53    31    26   ar
    54    44    39   ar
    55    49    45   ar
    56    49    50    1
@<TRIPOS>MOLECULE
*****
 50 56 0 0 0
SMALL
GASTEIGER

@<TRIPOS>ATOM
      1 C          63.2152   87.5538   16.8092 C.ar    1  UNL1        0.1214
      2 N          62.9630   88.8852   17.4526 N.ar    1  UNL1       -0.2198
      3 C          63.6170   89.9390   16.6089 C.ar    1  UNL1        0.1536
      4 CL         63.6149   91.4139   16.8820 Cl      1  UNL1       -0.0600
      5 C          64.2734   89.2589   15.4442 C.ar    1  UNL1        0.0971
      6 N          64.0251   87.7848   15.5680 N.ar    1  UNL1       -0.3113
      7 C          62.7409   86.2248   17.3179 C.3     1  UNL1        0.0640
      8 C          62.1112   85.2423   16.3753 C.3     1  UNL1        0.0079
      9 C          62.2698   83.0480   14.9934 C.3     1  UNL1        0.0000
     10 C          62.8048   83.9484   16.0671 C.3     1  UNL1        0.0005
     11 C          65.0430   89.9343   14.3481 C.3     1  UNL1        0.1890
     12 O          64.9615   91.4229   14.1817 O.3     1  UNL1       -0.3400
     13 C          65.6542   92.0878   13.0294 C.3     1  UNL1        0.1494
     14 C          64.5010   91.7399   12.1354 C.ar    1  UNL1        0.0098
     15 C          64.6337   91.8872   10.6485 C.ar    1  UNL1       -0.0014
     16 C          63.4805   91.5393    9.7546 C.ar    1  UNL1       -0.0002
     17 C          62.1947   91.0441   10.3475 C.ar    1  UNL1       -0.0000
     18 C          62.0621   90.8968   11.8343 C.ar    1  UNL1       -0.0002
     19 C          63.2152   91.2447   12.7283 C.ar    1  UNL1       -0.0014
     20 C          66.8073   92.4357   13.9234 C.ar    1  UNL1        0.0098
     21 C          68.1726   91.8851   13.6351 C.ar    1  UNL1       -0.0014
     22 C          69.3257   92.2330   14.5291 C.ar    1  UNL1       -0.0002
     23 C          69.1137   93.1314   15.7114 C.ar    1  UNL1       -0.0000
     24 C          67.7485   93.6820   15.9997 C.ar    1  UNL1       -0.0002
     25 C          66.5953   93.3341   15.1057 C.ar    1  UNL1       -0.0014
     26 C          66.3470   92.7528   11.8771 C.ar    1  UNL1        0.0098
     27 C          66.1091   94.2071   11.5969 C.ar    1  UNL1       -0.0014
     28 C          66.8019   94.8720   10.4446 C.ar    1  UNL1       -0.0002
     29 C          67.7326   94.0827    9.5724 C.ar    1  UNL1       -0.0000
     30 C          67.9705   92.6285    9.8525 C.ar    1  UNL1       -0.0002
     31 C          67.2777   91.9634   11.0048 C.ar    1  UNL1       -0.0014
     32 C          64.5028   86.7273   14.6175 C.3     1  UNL1        0.1337
     33 C          63.8207   86.5449   13.2940 C.ar    1  UNL1        0.0004
     34 C          63.4182   87.7430   12.4863 C.ar    1  UNL1       -0.0024
     35 C          62.7361   87.5605   11.1628 C.ar    1  UNL1       -0.0003
     36 C          62.4565   86.1800   10.6472 C.ar    1  UNL1        0.0001
     37 C          62.8590   84.9819   11.4550 C.ar    1  UNL1       -0.0003
     38 C          63.5410   85.1644   12.7784 C.ar    1  UNL1       -0.0024
     39 C          61.7744   85.9976    9.3238 C.ar    1  UNL1        0.0030
     40 C          62.3075   85.0025    8.3360 C.ar    1  UNL1        0.0001
     41 C          61.6254   84.8201    7.0127 C.ar    1  UNL1        0.0000
     42 C          60.4101   85.6328    6.6769 C.ar    1  UNL1        0.0001
     43 C          59.8770   86.6279    7.6646 C.ar    1  UNL1        0.0031
     44 C          60.5591   86.8103    8.9880 C.ar    1  UNL1        0.0371
     45 C          60.0260   87.8054    9.9757 C.ar    1  UNL1        0.1806
     46 N          59.6257   89.2191    9.6742 N.ar    1  UNL1       -0.1084
     47 N          59.1518   89.8489   10.9504 N.ar    1  UNL1       -0.0229
     48 N          59.2593   88.8244   12.0407 N.ar    1  UNL1       -0.0464
     49 N          59.7996   87.5614   11.4383 N.ar    1  UNL1       -0.2388
     50 H          59.9748   86.7200   11.9186 H       1  UNL1        0.1923
@<TRIPOS>BOND
     1     9    10    1
     2    10     8    1
     3     8     7    1
     4     7     1    1
     5     1     2   ar
     6     2     3   ar
     7     3     4    1
     8     3     5   ar
     9     5    11    1
    10    11    12    1
    11    12    13    1
    12    13    14    1
    13    14    15   ar
    14    15    16   ar
    15    16    17   ar
    16    17    18   ar
    17    18    19   ar
    18    13    20    1
    19    20    21   ar
    20    21    22   ar
    21    22    23   ar
    22    23    24   ar
    23    24    25   ar
    24    13    26    1
    25    26    27   ar
    26    27    28   ar
    27    28    29   ar
    28    29    30   ar
    29    30    31   ar
    30     5     6   ar
    31     6    32    1
    32    32    33    1
    33    33    34   ar
    34    34    35   ar
    35    35    36   ar
    36    36    39    1
    37    39    40   ar
    38    40    41   ar
    39    41    42   ar
    40    42    43   ar
    41    43    44   ar
    42    44    45    1
    43    45    46   ar
    44    46    47   ar
    45    47    48   ar
    46    48    49   ar
    47    36    37   ar
    48    37    38   ar
    49     6     1   ar
    50    38    33   ar
    51    19    14   ar
    52    25    20   ar
    53    31    26   ar
    54    44    39   ar
    55    49    45   ar
    56    49    50    1
@<TRIPOS>MOLECULE
*****
 50 56 0 0 0
SMALL
GASTEIGER

@<TRIPOS>ATOM
      1 C          60.5829   88.7023    9.3691 C.ar    1  UNL1        0.1214
      2 N          59.8365   89.8242   10.0281 N.ar    1  UNL1       -0.2198
      3 C          60.7134   90.3966   11.1021 C.ar    1  UNL1        0.1536
      4 CL         60.3634   91.5368   12.0116 Cl      1  UNL1       -0.0600
      5 C          62.0018   89.6284   11.1069 C.ar    1  UNL1        0.0971
      6 N          61.9211   88.5813   10.0359 N.ar    1  UNL1       -0.3113
      7 C          60.0795   87.8509    8.2414 C.3     1  UNL1        0.0640
      8 C          60.1218   86.3557    8.3538 C.3     1  UNL1        0.0079
      9 C          61.5301   84.8612    6.7623 C.3     1  UNL1        0.0000
     10 C          60.2267   85.5133    7.1171 C.3     1  UNL1        0.0005
     11 C          63.1663   89.8657   12.0220 C.3     1  UNL1        0.1890
     12 O          63.5177   91.2621   12.4422 O.3     1  UNL1       -0.3400
     13 C          64.7453   91.5105   13.2676 C.3     1  UNL1        0.1494
     14 C          65.2049   92.5370   12.2750 C.ar    1  UNL1        0.0098
     15 C          65.8296   93.8145   12.7519 C.ar    1  UNL1       -0.0014
     16 C          66.2892   94.8409   11.7593 C.ar    1  UNL1       -0.0002
     17 C          66.1240   94.5897   10.2897 C.ar    1  UNL1       -0.0000
     18 C          65.4993   93.3122    9.8128 C.ar    1  UNL1       -0.0002
     19 C          65.0397   92.2858   10.8054 C.ar    1  UNL1       -0.0014
     20 C          64.2856   90.4841   14.2601 C.ar    1  UNL1        0.0098
     21 C          64.6180   89.0365   14.0505 C.ar    1  UNL1       -0.0014
     22 C          64.1584   88.0101   15.0430 C.ar    1  UNL1       -0.0002
     23 C          63.3664   88.4312   16.2452 C.ar    1  UNL1       -0.0000
     24 C          63.0340   89.8788   16.4549 C.ar    1  UNL1       -0.0002
     25 C          63.4937   90.9053   15.4624 C.ar    1  UNL1       -0.0014
     26 C          65.9729   91.7589   14.0929 C.ar    1  UNL1        0.0098
     27 C          65.8414   92.2600   15.5007 C.ar    1  UNL1       -0.0014
     28 C          67.0690   92.5084   16.3261 C.ar    1  UNL1       -0.0002
     29 C          68.4281   92.2558   15.7437 C.ar    1  UNL1       -0.0000
     30 C          68.5596   91.7548   14.3360 C.ar    1  UNL1       -0.0002
     31 C          67.3319   91.5064   13.5106 C.ar    1  UNL1       -0.0014
     32 C          62.9909   87.5877    9.6919 C.3     1  UNL1        0.1337
     33 C          62.9484   86.2072   10.2772 C.ar    1  UNL1        0.0004
     34 C          62.3521   85.9866   11.6357 C.ar    1  UNL1       -0.0024
     35 C          62.3098   84.6060   12.2209 C.ar    1  UNL1       -0.0003
     36 C          62.8636   83.4462   11.4476 C.ar    1  UNL1        0.0001
     37 C          63.4599   83.6669   10.0889 C.ar    1  UNL1       -0.0003
     38 C          63.5023   85.0474    9.5038 C.ar    1  UNL1       -0.0024
     39 C          62.8212   82.0658   12.0328 C.ar    1  UNL1        0.0030
     40 C          62.6919   80.8730   11.1323 C.ar    1  UNL1        0.0001
     41 C          62.6495   79.4926   11.7175 C.ar    1  UNL1        0.0000
     42 C          62.7363   79.3048   13.2033 C.ar    1  UNL1        0.0001
     43 C          62.8656   80.4975   14.1037 C.ar    1  UNL1        0.0031
     44 C          62.9080   81.8780   13.5184 C.ar    1  UNL1        0.0371
     45 C          63.0372   83.0706   14.4189 C.ar    1  UNL1        0.1806
     46 N          61.9096   83.7860   15.1020 N.ar    1  UNL1       -0.1084
     47 N          62.4922   84.9148   15.8996 N.ar    1  UNL1       -0.0229
     48 N          63.9800   84.8972   15.7094 N.ar    1  UNL1       -0.0464
     49 N          64.3168   83.7574   14.7943 N.ar    1  UNL1       -0.2388
     50 H          65.2193   83.5045   14.4930 H       1  UNL1        0.1923
@<TRIPOS>BOND
     1     9    10    1
     2    10     8    1
     3     8     7    1
     4     7     1    1
     5     1     2   ar
     6     2     3   ar
     7     3     4    1
     8     3     5   ar
     9     5    11    1
    10    11    12    1
    11    12    13    1
    12    13    14    1
    13    14    15   ar
    14    15    16   ar
    15    16    17   ar
    16    17    18   ar
    17    18    19   ar
    18    13    20    1
    19    20    21   ar
    20    21    22   ar
    21    22    23   ar
    22    23    24   ar
    23    24    25   ar
    24    13    26    1
    25    26    27   ar
    26    27    28   ar
    27    28    29   ar
    28    29    30   ar
    29    30    31   ar
    30     5     6   ar
    31     6    32    1
    32    32    33    1
    33    33    34   ar
    34    34    35   ar
    35    35    36   ar
    36    36    39    1
    37    39    40   ar
    38    40    41   ar
    39    41    42   ar
    40    42    43   ar
    41    43    44   ar
    42    44    45    1
    43    45    46   ar
    44    46    47   ar
    45    47    48   ar
    46    48    49   ar
    47    36    37   ar
    48    37    38   ar
    49     6     1   ar
    50    38    33   ar
    51    19    14   ar
    52    25    20   ar
    53    31    26   ar
    54    44    39   ar
    55    49    45   ar
    56    49    50    1
@<TRIPOS>MOLECULE
*****
 50 56 0 0 0
SMALL
GASTEIGER

@<TRIPOS>ATOM
      1 C          60.5807   88.7030    9.3344 C.ar    1  UNL1        0.1214
      2 N          59.8367   89.8269    9.9928 N.ar    1  UNL1       -0.2198
      3 C          60.7159   90.3995   11.0648 C.ar    1  UNL1        0.1536
      4 CL         60.3687   91.5415   11.9732 Cl      1  UNL1       -0.0600
      5 C          62.0033   89.6295   11.0689 C.ar    1  UNL1        0.0971
      6 N          61.9197   88.5811    9.9994 N.ar    1  UNL1       -0.3113
      7 C          60.0745   87.8508    8.2085 C.3     1  UNL1        0.0640
      8 C          60.1343   86.3556    8.3142 C.3     1  UNL1        0.0079
      9 C          61.5186   84.8518    6.7105 C.3     1  UNL1        0.0000
     10 C          60.2249   85.5190    7.0725 C.3     1  UNL1        0.0005
     11 C          63.1694   89.8664   11.9821 C.3     1  UNL1        0.1890
     12 O          63.5083   91.2607   12.4196 O.3     1  UNL1       -0.3400
     13 C          64.7349   91.5101   13.2461 C.3     1  UNL1        0.1494
     14 C          64.2721   90.4876   14.2414 C.ar    1  UNL1        0.0098
     15 C          64.5878   89.0368   14.0282 C.ar    1  UNL1       -0.0014
     16 C          64.1250   88.0145   15.0235 C.ar    1  UNL1       -0.0002
     17 C          63.3464   88.4430   16.2319 C.ar    1  UNL1       -0.0000
     18 C          63.0307   89.8937   16.4450 C.ar    1  UNL1       -0.0002
     19 C          63.4935   90.9161   15.4498 C.ar    1  UNL1       -0.0014
     20 C          65.1977   92.5324   12.2508 C.ar    1  UNL1        0.0098
     21 C          65.0347   92.2765   10.7818 C.ar    1  UNL1       -0.0014
     22 C          65.4975   93.2989    9.7865 C.ar    1  UNL1       -0.0002
     23 C          66.1232   94.5772   10.2602 C.ar    1  UNL1       -0.0000
     24 C          66.2862   94.8331   11.7292 C.ar    1  UNL1       -0.0002
     25 C          65.8234   93.8107   12.7245 C.ar    1  UNL1       -0.0014
     26 C          65.9615   91.7595   14.0726 C.ar    1  UNL1        0.0098
     27 C          65.8280   92.2512   15.4835 C.ar    1  UNL1       -0.0014
     28 C          67.0547   92.5006   16.3100 C.ar    1  UNL1       -0.0002
     29 C          68.4148   92.2583   15.7257 C.ar    1  UNL1       -0.0000
     30 C          68.5483   91.7665   14.3150 C.ar    1  UNL1       -0.0002
     31 C          67.3216   91.5171   13.4884 C.ar    1  UNL1       -0.0014
     32 C          62.9875   87.5855    9.6554 C.3     1  UNL1        0.1337
     33 C          62.9491   86.2089   10.2500 C.ar    1  UNL1        0.0004
     34 C          62.3757   85.9994   11.6201 C.ar    1  UNL1       -0.0024
     35 C          62.3373   84.6227   12.2146 C.ar    1  UNL1       -0.0003
     36 C          62.8723   83.4556   11.4390 C.ar    1  UNL1        0.0001
     37 C          63.4458   83.6651   10.0688 C.ar    1  UNL1       -0.0003
     38 C          63.4841   85.0417    9.4744 C.ar    1  UNL1       -0.0024
     39 C          62.8339   82.0791   12.0335 C.ar    1  UNL1        0.0030
     40 C          62.7009   80.8803   11.1416 C.ar    1  UNL1        0.0001
     41 C          62.6625   79.5038   11.7361 C.ar    1  UNL1        0.0000
     42 C          62.7571   79.3258   13.2226 C.ar    1  UNL1        0.0001
     43 C          62.8901   80.5245   14.1145 C.ar    1  UNL1        0.0031
     44 C          62.9285   81.9011   13.5199 C.ar    1  UNL1        0.0371
     45 C          63.0615   83.0998   14.4118 C.ar    1  UNL1        0.1806
     46 N          64.3443   83.7780   14.7919 N.ar    1  UNL1       -0.1084
     47 N          64.0107   84.9280   15.6952 N.ar    1  UNL1       -0.0229
     48 N          62.5217   84.9607   15.8733 N.ar    1  UNL1       -0.0464
     49 N          61.9351   83.8308   15.0801 N.ar    1  UNL1       -0.2388
     50 H          60.9786   83.6081   15.0105 H       1  UNL1        0.1923
@<TRIPOS>BOND
     1     9    10    1
     2    10     8    1
     3     8     7    1
     4     7     1    1
     5     1     2   ar
     6     2     3   ar
     7     3     4    1
     8     3     5   ar
     9     5    11    1
    10    11    12    1
    11    12    13    1
    12    13    14    1
    13    14    15   ar
    14    15    16   ar
    15    16    17   ar
    16    17    18   ar
    17    18    19   ar
    18    13    20    1
    19    20    21   ar
    20    21    22   ar
    21    22    23   ar
    22    23    24   ar
    23    24    25   ar
    24    13    26    1
    25    26    27   ar
    26    27    28   ar
    27    28    29   ar
    28    29    30   ar
    29    30    31   ar
    30     5     6   ar
    31     6    32    1
    32    32    33    1
    33    33    34   ar
    34    34    35   ar
    35    35    36   ar
    36    36    39    1
    37    39    40   ar
    38    40    41   ar
    39    41    42   ar
    40    42    43   ar
    41    43    44   ar
    42    44    45    1
    43    45    46   ar
    44    46    47   ar
    45    47    48   ar
    46    48    49   ar
    47    36    37   ar
    48    37    38   ar
    49     6     1   ar
    50    38    33   ar
    51    19    14   ar
    52    25    20   ar
    53    31    26   ar
    54    44    39   ar
    55    49    45   ar
    56    49    50    1
