@<TRIPOS>MOLECULE
*****
 42 45 0 0 0
SMALL
GASTEIGER

@<TRIPOS>ATOM
      1 C          61.6912   88.5200   11.1605 C.3     1  UNL1        0.1148
      2 O          63.1672   88.7828   11.2095 O.3     1  UNL1       -0.3822
      3 C          60.3957   87.7787   11.0118 C.3     1  UNL1        0.0486
      4 C          59.0932   88.5063   11.1672 C.3     1  UNL1        0.0714
      5 N          59.0862   89.9751   11.4713 N.3     1  UNL1       -0.2970
      6 C          60.3817   90.7164   11.6199 C.3     1  UNL1        0.0773
      7 C          61.6842   89.9888   11.4645 C.3     1  UNL1        0.0883
      8 H          63.6483   87.9584   11.0370 H       1  UNL1        0.2107
      9 H          58.5779   90.0919   12.3478 H       1  UNL1        0.1233
     10 C          63.2499   84.3873   10.2993 C.ar    1  UNL1        0.0072
     11 C          63.1224   84.8605   11.7170 C.ar    1  UNL1       -0.0021
     12 C          62.6029   86.2381   12.0040 C.ar    1  UNL1       -0.0023
     13 C          62.2108   87.1424   10.8734 C.ar    1  UNL1        0.0021
     14 C          62.3382   86.6693    9.4558 C.ar    1  UNL1       -0.0023
     15 C          62.8578   85.2917    9.1687 C.ar    1  UNL1       -0.0021
     16 C          63.7694   83.0098   10.0123 C.3     1  UNL1        0.1686
     17 O          64.0375   82.0590   11.1410 O.3     1  UNL1       -0.3489
     18 C          62.9019   81.3213   11.7861 C.3     1  UNL1        0.1451
     19 C          62.6382   81.4855   13.2536 C.3     1  UNL1        0.0593
     20 C          61.3733   80.9464   13.8532 C.3     1  UNL1        0.0052
     21 C          63.6393   82.1888   14.1214 C.3     1  UNL1        0.1447
     22 C          62.4799   84.1690   15.3399 C.3     1  UNL1        0.1741
     23 O          63.1959   82.8520   15.3918 O.3     1  UNL1       -0.3510
     24 C          62.9798   90.7301   11.6132 C.ar    1  UNL1        0.1103
     25 N          63.7442   91.3995   10.5097 N.ar    1  UNL1       -0.0807
     26 O          64.9752   92.0153   11.1060 O.2     1  UNL1       -0.3532
     27 C          64.9716   91.7264   12.5779 C.ar    1  UNL1        0.1823
     28 C          63.7384   90.9321   12.8914 C.ar    1  UNL1        0.0884
     29 BR         63.3346   90.4283   14.2453 Br      1  UNL1       -0.0444
     30 C          66.0176   92.1563   13.5634 C.ar    1  UNL1        0.0338
     31 C          66.5308   91.1845   14.5842 C.ar    1  UNL1        0.0028
     32 C          67.5768   91.6145   15.5697 C.ar    1  UNL1        0.0001
     33 C          68.1096   93.0163   15.5343 C.ar    1  UNL1       -0.0003
     34 C          67.5963   93.9880   14.5134 C.ar    1  UNL1       -0.0041
     35 C          66.5503   93.5581   13.5279 C.ar    1  UNL1       -0.0174
     36 C          66.0371   94.5299   12.5071 C.3     1  UNL1        0.0477
     37 C          66.7438   94.6799   11.1925 C.3     1  UNL1        0.0941
     38 N          67.5521   93.5428   10.6414 N.am    1  UNL1       -0.3040
     39 C          67.9343   93.5280    9.1911 C.2     1  UNL1        0.2230
     40 C          68.7426   92.3909    8.6400 C.3     1  UNL1        0.0946
     41 O          67.5083   94.6503    8.2917 O.2     1  UNL1       -0.2751
     42 H          67.8317   92.8061   11.2317 H       1  UNL1        0.1494
@<TRIPOS>BOND
     1    22    23    1
     2    23    21    1
     3    21    19    1
     4    19    20    1
     5    19    18    1
     6    18    17    1
     7    17    16    1
     8    16    10    1
     9    10    11   ar
    10    11    12   ar
    11    12    13   ar
    12    13     1    1
    13     1     2    1
    14     1     3    1
    15     3     4    1
    16     4     5    1
    17     5     6    1
    18     6     7    1
    19     7    24    1
    20    24    25   ar
    21    25    26   ar
    22    26    27   ar
    23    27    30    1
    24    30    31   ar
    25    31    32   ar
    26    32    33   ar
    27    33    34   ar
    28    34    35   ar
    29    35    36    1
    30    36    37    1
    31    37    38    1
    32    38    39   am
    33    39    40    1
    34    39    41    2
    35    27    28   ar
    36    28    29    1
    37    13    14   ar
    38    14    15   ar
    39    15    10   ar
    40     7     1    1
    41    28    24   ar
    42    35    30   ar
    43     2     8    1
    44     5     9    1
    45    38    42    1
@<TRIPOS>MOLECULE
*****
 42 45 0 0 0
SMALL
GASTEIGER

@<TRIPOS>ATOM
      1 C          63.8352   87.8594   15.2005 C.3     1  UNL1        0.1148
      2 O          64.3351   87.1196   13.9952 O.3     1  UNL1       -0.3822
      3 C          63.4104   88.9983   16.0795 C.3     1  UNL1        0.0486
      4 C          62.9427   88.7312   17.4795 C.3     1  UNL1        0.0714
      5 N          62.8998   87.3253   18.0005 N.3     1  UNL1       -0.2970
      6 C          63.3246   86.1864   17.1215 C.3     1  UNL1        0.0773
      7 C          63.7922   86.4535   15.7215 C.3     1  UNL1        0.0883
      8 H          64.5232   87.7511   13.2833 H       1  UNL1        0.2107
      9 H          61.9344   87.1420   18.2740 H       1  UNL1        0.1233
     10 C          64.4849   91.3065   12.3817 C.ar    1  UNL1        0.0072
     11 C          63.5438   90.1997   12.0086 C.ar    1  UNL1       -0.0021
     12 C          63.3272   89.0507   12.9482 C.ar    1  UNL1       -0.0023
     13 C          64.0517   89.0084   14.2609 C.ar    1  UNL1        0.0021
     14 C          64.9929   90.1152   14.6340 C.ar    1  UNL1       -0.0023
     15 C          65.2094   91.2643   13.6944 C.ar    1  UNL1       -0.0021
     16 C          64.7014   92.4555   11.4421 C.3     1  UNL1        0.1686
     17 O          66.0753   93.0308   11.2650 O.3     1  UNL1       -0.3489
     18 C          66.3226   94.4829   11.5482 C.3     1  UNL1        0.1451
     19 C          66.7981   95.3904   10.4525 C.3     1  UNL1        0.0593
     20 C          66.4783   96.8551   10.5001 C.3     1  UNL1        0.0052
     21 C          67.5934   94.8331    9.3093 C.3     1  UNL1        0.1447
     22 C          68.7453   92.5094    9.1559 C.3     1  UNL1        0.1741
     23 O          68.7746   93.9484    9.5781 O.3     1  UNL1       -0.3510
     24 C          64.2170   85.3146   14.8426 C.ar    1  UNL1        0.1103
     25 N          65.6155   85.0326   14.3791 N.ar    1  UNL1       -0.0807
     26 O          65.5807   83.8015   13.5229 O.2     1  UNL1       -0.3532
     27 C          64.1607   83.3226   13.4572 C.ar    1  UNL1        0.1823
     28 C          63.3179   84.2578   14.2728 C.ar    1  UNL1        0.0884
     29 BR         61.8362   84.1543   14.4818 Br      1  UNL1       -0.0444
     30 C          63.6696   82.1197   12.7074 C.ar    1  UNL1        0.0338
     31 C          63.1026   80.9498   13.4554 C.ar    1  UNL1        0.0028
     32 C          62.6116   79.7469   12.7057 C.ar    1  UNL1        0.0001
     33 C          62.6876   79.7141   11.2079 C.ar    1  UNL1       -0.0003
     34 C          63.2546   80.8842   10.4600 C.ar    1  UNL1       -0.0041
     35 C          63.7457   82.0870   11.2097 C.ar    1  UNL1       -0.0174
     36 C          64.3127   83.2570   10.4617 C.3     1  UNL1        0.0477
     37 C          63.3937   84.2604    9.8304 C.3     1  UNL1        0.0941
     38 N          62.5505   85.1521   10.6929 N.am    1  UNL1       -0.3040
     39 C          61.6825   86.2014   10.0639 C.2     1  UNL1        0.2230
     40 C          60.8393   87.0931   10.9264 C.3     1  UNL1        0.0946
     41 O          61.6577   86.3590    8.5725 O.2     1  UNL1       -0.2751
     42 H          62.5668   85.0487   11.6718 H       1  UNL1        0.1494
@<TRIPOS>BOND
     1    22    23    1
     2    23    21    1
     3    21    19    1
     4    19    20    1
     5    19    18    1
     6    18    17    1
     7    17    16    1
     8    16    10    1
     9    10    11   ar
    10    11    12   ar
    11    12    13   ar
    12    13     1    1
    13     1     2    1
    14     1     3    1
    15     3     4    1
    16     4     5    1
    17     5     6    1
    18     6     7    1
    19     7    24    1
    20    24    25   ar
    21    25    26   ar
    22    26    27   ar
    23    27    30    1
    24    30    31   ar
    25    31    32   ar
    26    32    33   ar
    27    33    34   ar
    28    34    35   ar
    29    35    36    1
    30    36    37    1
    31    37    38    1
    32    38    39   am
    33    39    40    1
    34    39    41    2
    35    27    28   ar
    36    28    29    1
    37    13    14   ar
    38    14    15   ar
    39    15    10   ar
    40     7     1    1
    41    28    24   ar
    42    35    30   ar
    43     2     8    1
    44     5     9    1
    45    38    42    1
@<TRIPOS>MOLECULE
*****
 42 45 0 0 0
SMALL
GASTEIGER

@<TRIPOS>ATOM
      1 C          61.9366   88.6064    9.9329 C.3     1  UNL1        0.1148
      2 O          62.9515   87.6622   10.5059 O.3     1  UNL1       -0.3822
      3 C          61.2086   89.8844    9.6385 C.3     1  UNL1        0.0486
      4 C          60.0070   89.8734    8.7407 C.3     1  UNL1        0.0714
      5 N          59.5334   88.5844    8.1373 N.3     1  UNL1       -0.2970
      6 C          60.2614   87.3063    8.4317 C.3     1  UNL1        0.0773
      7 C          61.4630   87.3174    9.3295 C.3     1  UNL1        0.0883
      8 H          63.5726   88.1552   11.0646 H       1  UNL1        0.2107
      9 H          59.5534   88.7082    7.1250 H       1  UNL1        0.1233
     10 C          64.4148   91.4898   12.3401 C.ar    1  UNL1        0.0072
     11 C          63.9346   90.2123   12.9625 C.ar    1  UNL1       -0.0021
     12 C          63.1086   89.2512   12.1601 C.ar    1  UNL1       -0.0023
     13 C          62.7627   89.5675   10.7353 C.ar    1  UNL1        0.0021
     14 C          63.2428   90.8450   10.1128 C.ar    1  UNL1       -0.0023
     15 C          64.0689   91.8061   10.9153 C.ar    1  UNL1       -0.0021
     16 C          65.2409   92.4509   13.1425 C.3     1  UNL1        0.1686
     17 O          66.4207   93.1316   12.5145 O.3     1  UNL1       -0.3489
     18 C          66.3269   94.5728   12.1091 C.3     1  UNL1        0.1451
     19 C          66.1657   94.9360   10.6626 C.3     1  UNL1        0.0593
     20 C          65.3360   96.1242   10.2757 C.3     1  UNL1        0.0052
     21 C          66.8341   94.1110    9.6031 C.3     1  UNL1        0.1447
     22 C          68.8652   92.5272    9.2619 C.3     1  UNL1        0.1741
     23 O          68.3117   93.8608    9.6683 O.3     1  UNL1       -0.3510
     24 C          62.1910   86.0394    9.6239 C.ar    1  UNL1        0.1103
     25 N          63.1251   85.3225    8.6945 N.ar    1  UNL1       -0.0807
     26 O          63.6242   84.0939    9.3955 O.2     1  UNL1       -0.3532
     27 C          62.9986   84.0514   10.7581 C.ar    1  UNL1        0.1823
     28 C          62.1128   85.2537   10.8993 C.ar    1  UNL1        0.0884
     29 BR         61.2929   85.6082   12.1043 Br      1  UNL1       -0.0444
     30 C          63.2198   82.9924   11.7973 C.ar    1  UNL1        0.0338
     31 C          62.7923   81.5796   11.5311 C.ar    1  UNL1        0.0028
     32 C          63.0135   80.5206   12.5703 C.ar    1  UNL1        0.0001
     33 C          63.6623   80.8747   13.8756 C.ar    1  UNL1       -0.0003
     34 C          64.0898   82.2876   14.1417 C.ar    1  UNL1       -0.0041
     35 C          63.8685   83.3465   13.1025 C.ar    1  UNL1       -0.0174
     36 C          64.2961   84.7594   13.3687 C.3     1  UNL1        0.0477
     37 C          64.9870   85.1044   14.6546 C.3     1  UNL1        0.0941
     38 N          64.2068   85.1568   15.9347 N.am    1  UNL1       -0.3040
     39 C          63.5228   86.4271   16.3447 C.2     1  UNL1        0.2230
     40 C          62.7426   86.4795   17.6248 C.3     1  UNL1        0.0946
     41 O          63.6189   87.6452   15.4746 O.2     1  UNL1       -0.2751
     42 H          64.1438   84.3573   16.5057 H       1  UNL1        0.1494
@<TRIPOS>BOND
     1    22    23    1
     2    23    21    1
     3    21    19    1
     4    19    20    1
     5    19    18    1
     6    18    17    1
     7    17    16    1
     8    16    10    1
     9    10    11   ar
    10    11    12   ar
    11    12    13   ar
    12    13     1    1
    13     1     2    1
    14     1     3    1
    15     3     4    1
    16     4     5    1
    17     5     6    1
    18     6     7    1
    19     7    24    1
    20    24    25   ar
    21    25    26   ar
    22    26    27   ar
    23    27    30    1
    24    30    31   ar
    25    31    32   ar
    26    32    33   ar
    27    33    34   ar
    28    34    35   ar
    29    35    36    1
    30    36    37    1
    31    37    38    1
    32    38    39   am
    33    39    40    1
    34    39    41    2
    35    27    28   ar
    36    28    29    1
    37    13    14   ar
    38    14    15   ar
    39    15    10   ar
    40     7     1    1
    41    28    24   ar
    42    35    30   ar
    43     2     8    1
    44     5     9    1
    45    38    42    1
@<TRIPOS>MOLECULE
*****
 42 45 0 0 0
SMALL
GASTEIGER

@<TRIPOS>ATOM
      1 C          62.5764   89.6918   10.9957 C.3     1  UNL1        0.1148
      2 O          63.5008   88.9826   11.9404 O.3     1  UNL1       -0.3822
      3 C          61.9848   90.7871   10.1588 C.3     1  UNL1        0.0486
      4 C          60.7560   90.5245    9.3395 C.3     1  UNL1        0.0714
      5 N          60.1189   89.1667    9.3571 N.3     1  UNL1       -0.2970
      6 C          60.7105   88.0714   10.1940 C.3     1  UNL1        0.0773
      7 C          61.9393   88.3340   11.0133 C.3     1  UNL1        0.0883
      8 H          64.1938   89.5942   12.2347 H       1  UNL1        0.2107
      9 H          60.1139   88.8313    8.3939 H       1  UNL1        0.1233
     10 C          65.4509   93.0264   11.9272 C.ar    1  UNL1        0.0072
     11 C          64.9105   92.8685   10.5369 C.ar    1  UNL1       -0.0021
     12 C          63.9523   91.7570   10.2264 C.ar    1  UNL1       -0.0023
     13 C          63.5345   90.8034   11.3062 C.ar    1  UNL1        0.0021
     14 C          64.0750   90.9613   12.6965 C.ar    1  UNL1       -0.0023
     15 C          65.0331   92.0728   13.0070 C.ar    1  UNL1       -0.0021
     16 C          66.4090   94.1380   12.2377 C.3     1  UNL1        0.1686
     17 O          66.1154   95.5333   11.7720 O.3     1  UNL1       -0.3489
     18 C          66.9924   96.1801   10.7413 C.3     1  UNL1        0.1451
     19 C          66.8216   95.8391    9.2905 C.3     1  UNL1        0.0593
     20 C          65.8160   96.5793    8.4594 C.3     1  UNL1        0.0052
     21 C          67.6565   94.7579    8.6709 C.3     1  UNL1        0.1447
     22 C          68.5477   92.4917    9.5767 C.3     1  UNL1        0.1741
     23 O          68.6312   93.9879    9.5120 O.3     1  UNL1       -0.3510
     24 C          62.5309   87.2388   11.8502 C.ar    1  UNL1        0.1103
     25 N          63.4052   87.4240   13.0549 N.ar    1  UNL1       -0.0807
     26 O          63.7668   86.0657   13.5786 O.2     1  UNL1       -0.3532
     27 C          63.1159   85.0409   12.6976 C.ar    1  UNL1        0.1823
     28 C          62.3520   85.7659   11.6294 C.ar    1  UNL1        0.0884
     29 BR         61.5502   85.1297   10.5329 Br      1  UNL1       -0.0444
     30 C          63.2119   83.5524   12.8568 C.ar    1  UNL1        0.0338
     31 C          63.7514   82.7118   11.7378 C.ar    1  UNL1        0.0028
     32 C          63.8474   81.2233   11.8970 C.ar    1  UNL1        0.0001
     33 C          63.4038   80.5756   13.1752 C.ar    1  UNL1       -0.0003
     34 C          62.8643   81.4163   14.2941 C.ar    1  UNL1       -0.0041
     35 C          62.7683   82.9048   14.1349 C.ar    1  UNL1       -0.0174
     36 C          62.2287   83.7455   15.2539 C.3     1  UNL1        0.0477
     37 C          63.1337   84.1823   16.3675 C.3     1  UNL1        0.0941
     38 N          63.6063   85.6043   16.4359 N.am    1  UNL1       -0.3040
     39 C          62.6674   86.6861   16.8812 C.2     1  UNL1        0.2230
     40 C          63.1400   88.1081   16.9496 C.3     1  UNL1        0.0946
     41 O          61.2559   86.3459   17.2580 O.2     1  UNL1       -0.2751
     42 H          64.5327   85.8276   16.1886 H       1  UNL1        0.1494
@<TRIPOS>BOND
     1    22    23    1
     2    23    21    1
     3    21    19    1
     4    19    20    1
     5    19    18    1
     6    18    17    1
     7    17    16    1
     8    16    10    1
     9    10    11   ar
    10    11    12   ar
    11    12    13   ar
    12    13     1    1
    13     1     2    1
    14     1     3    1
    15     3     4    1
    16     4     5    1
    17     5     6    1
    18     6     7    1
    19     7    24    1
    20    24    25   ar
    21    25    26   ar
    22    26    27   ar
    23    27    30    1
    24    30    31   ar
    25    31    32   ar
    26    32    33   ar
    27    33    34   ar
    28    34    35   ar
    29    35    36    1
    30    36    37    1
    31    37    38    1
    32    38    39   am
    33    39    40    1
    34    39    41    2
    35    27    28   ar
    36    28    29    1
    37    13    14   ar
    38    14    15   ar
    39    15    10   ar
    40     7     1    1
    41    28    24   ar
    42    35    30   ar
    43     2     8    1
    44     5     9    1
    45    38    42    1
@<TRIPOS>MOLECULE
*****
 42 45 0 0 0
SMALL
GASTEIGER

@<TRIPOS>ATOM
      1 C          61.9216   88.5662    9.8181 C.3     1  UNL1        0.1148
      2 O          62.9563   87.6478   10.3977 O.3     1  UNL1       -0.3822
      3 C          61.1776   89.8291    9.4995 C.3     1  UNL1        0.0486
      4 C          59.9557   89.7809    8.6308 C.3     1  UNL1        0.0714
      5 N          59.4777   88.4698    8.0808 N.3     1  UNL1       -0.2970
      6 C          60.2217   87.2069    8.3994 C.3     1  UNL1        0.0773
      7 C          61.4436   87.2551    9.2681 C.3     1  UNL1        0.0883
      8 H          63.5865   88.1629   10.9255 H       1  UNL1        0.2107
      9 H          59.4735   88.5607    7.0648 H       1  UNL1        0.1233
     10 C          64.4336   91.5427   12.0720 C.ar    1  UNL1        0.0072
     11 C          64.0026   90.2691   12.7369 C.ar    1  UNL1       -0.0021
     12 C          63.1653   89.2769   11.9856 C.ar    1  UNL1       -0.0023
     13 C          62.7589   89.5583   10.5694 C.ar    1  UNL1        0.0021
     14 C          63.1898   90.8320    9.9046 C.ar    1  UNL1       -0.0023
     15 C          64.0272   91.8241   10.6559 C.ar    1  UNL1       -0.0021
     16 C          65.2709   92.5349   12.8233 C.3     1  UNL1        0.1686
     17 O          66.6277   92.1417   13.3278 O.3     1  UNL1       -0.3489
     18 C          66.7797   91.5773   14.7092 C.3     1  UNL1        0.1451
     19 C          66.8322   92.4966   15.8934 C.3     1  UNL1        0.0593
     20 C          68.0284   93.3761   16.1076 C.3     1  UNL1        0.0052
     21 C          65.6887   92.5365   16.8632 C.3     1  UNL1        0.1447
     22 C          63.6686   90.9611   16.4305 C.3     1  UNL1        0.1741
     23 O          64.2851   92.3274   16.3769 O.3     1  UNL1       -0.3510
     24 C          62.1875   85.9921    9.5868 C.ar    1  UNL1        0.1103
     25 N          63.1440   85.2789    8.6776 N.ar    1  UNL1       -0.0807
     26 O          63.6532   84.0666    9.3994 O.2     1  UNL1       -0.3532
     27 C          63.0115   84.0306   10.7548 C.ar    1  UNL1        0.1823
     28 C          62.1057   85.2206   10.8706 C.ar    1  UNL1        0.0884
     29 BR         61.2656   85.5766   12.0611 Br      1  UNL1       -0.0444
     30 C          63.2362   82.9877   11.8093 C.ar    1  UNL1        0.0338
     31 C          62.7509   81.5851   11.5924 C.ar    1  UNL1        0.0028
     32 C          62.9756   80.5422   12.6469 C.ar    1  UNL1        0.0001
     33 C          63.6856   80.9020   13.9183 C.ar    1  UNL1       -0.0003
     34 C          64.1709   82.3047   14.1351 C.ar    1  UNL1       -0.0041
     35 C          63.9462   83.3475   13.0806 C.ar    1  UNL1       -0.0174
     36 C          64.4315   84.7502   13.2976 C.3     1  UNL1        0.0477
     37 C          65.0504   85.1354   14.6085 C.3     1  UNL1        0.0941
     38 N          64.2209   85.1358   15.8582 N.am    1  UNL1       -0.3040
     39 C          63.5396   86.3949   16.3058 C.2     1  UNL1        0.2230
     40 C          62.7100   86.3954   17.5556 C.3     1  UNL1        0.0946
     41 O          63.6878   87.6537   15.5036 O.2     1  UNL1       -0.2751
     42 H          64.1236   84.3096   16.3847 H       1  UNL1        0.1494
@<TRIPOS>BOND
     1    22    23    1
     2    23    21    1
     3    21    19    1
     4    19    20    1
     5    19    18    1
     6    18    17    1
     7    17    16    1
     8    16    10    1
     9    10    11   ar
    10    11    12   ar
    11    12    13   ar
    12    13     1    1
    13     1     2    1
    14     1     3    1
    15     3     4    1
    16     4     5    1
    17     5     6    1
    18     6     7    1
    19     7    24    1
    20    24    25   ar
    21    25    26   ar
    22    26    27   ar
    23    27    30    1
    24    30    31   ar
    25    31    32   ar
    26    32    33   ar
    27    33    34   ar
    28    34    35   ar
    29    35    36    1
    30    36    37    1
    31    37    38    1
    32    38    39   am
    33    39    40    1
    34    39    41    2
    35    27    28   ar
    36    28    29    1
    37    13    14   ar
    38    14    15   ar
    39    15    10   ar
    40     7     1    1
    41    28    24   ar
    42    35    30   ar
    43     2     8    1
    44     5     9    1
    45    38    42    1
@<TRIPOS>MOLECULE
*****
 42 45 0 0 0
SMALL
GASTEIGER

@<TRIPOS>ATOM
      1 C          62.4916   89.5512   10.7826 C.3     1  UNL1        0.1148
      2 O          63.3305   88.8012   11.7744 O.3     1  UNL1       -0.3822
      3 C          61.9789   90.6798    9.9379 C.3     1  UNL1        0.0486
      4 C          60.8182   90.4578    9.0140 C.3     1  UNL1        0.0714
      5 N          60.1703   89.1074    8.9347 N.3     1  UNL1       -0.2970
      6 C          60.6830   87.9788    9.7793 C.3     1  UNL1        0.0773
      7 C          61.8437   88.2007   10.7033 C.3     1  UNL1        0.0883
      8 H          64.0027   89.3950   12.1439 H       1  UNL1        0.2107
      9 H          60.2404   88.8037    7.9635 H       1  UNL1        0.1233
     10 C          65.3095   92.8213   12.0537 C.ar    1  UNL1        0.0072
     11 C          64.8482   92.7406   10.6287 C.ar    1  UNL1       -0.0021
     12 C          63.9089   91.6506   10.2050 C.ar    1  UNL1       -0.0023
     13 C          63.4309   90.6412   11.2063 C.ar    1  UNL1        0.0021
     14 C          63.8921   90.7219   12.6313 C.ar    1  UNL1       -0.0023
     15 C          64.8314   91.8119   13.0550 C.ar    1  UNL1       -0.0021
     16 C          66.2488   93.9113   12.4775 C.3     1  UNL1        0.1686
     17 O          66.3528   94.2911   13.9248 O.3     1  UNL1       -0.3489
     18 C          67.5265   93.8319   14.7382 C.3     1  UNL1        0.1451
     19 C          67.3252   92.8606   15.8635 C.3     1  UNL1        0.0593
     20 C          68.4788   92.0427   16.3637 C.3     1  UNL1        0.0052
     21 C          65.9703   92.7073   16.4885 C.3     1  UNL1        0.1447
     22 C          63.8129   91.2623   16.5764 C.3     1  UNL1        0.1741
     23 O          64.9047   91.9196   15.7854 O.3     1  UNL1       -0.3510
     24 C          62.3563   87.0721   11.5479 C.ar    1  UNL1        0.1103
     25 N          63.1797   87.2072   12.7945 N.ar    1  UNL1       -0.0807
     26 O          63.4679   85.8289   13.3113 O.2     1  UNL1       -0.3532
     27 C          62.8227   84.8419   12.3842 C.ar    1  UNL1        0.1823
     28 C          62.1358   85.6102   11.2943 C.ar    1  UNL1        0.0884
     29 BR         61.3638   85.0203   10.1516 Br      1  UNL1       -0.0444
     30 C          62.8583   83.3487   12.5225 C.ar    1  UNL1        0.0338
     31 C          63.2494   82.4962   11.3521 C.ar    1  UNL1        0.0028
     32 C          63.2850   81.0029   11.4904 C.ar    1  UNL1        0.0001
     33 C          62.9293   80.3623   12.7993 C.ar    1  UNL1       -0.0003
     34 C          62.5381   81.2150   13.9698 C.ar    1  UNL1       -0.0041
     35 C          62.5026   82.7081   13.8314 C.ar    1  UNL1       -0.0174
     36 C          62.1114   83.5607   15.0019 C.3     1  UNL1        0.0477
     37 C          63.1288   83.9136   16.0461 C.3     1  UNL1        0.0941
     38 N          63.6011   85.3305   16.1846 N.am    1  UNL1       -0.3040
     39 C          62.6958   86.3681   16.7794 C.2     1  UNL1        0.2230
     40 C          63.1681   87.7851   16.9179 C.3     1  UNL1        0.0946
     41 O          61.3182   85.9887   17.2358 O.2     1  UNL1       -0.2751
     42 H          64.5053   85.5795   15.8851 H       1  UNL1        0.1494
@<TRIPOS>BOND
     1    22    23    1
     2    23    21    1
     3    21    19    1
     4    19    20    1
     5    19    18    1
     6    18    17    1
     7    17    16    1
     8    16    10    1
     9    10    11   ar
    10    11    12   ar
    11    12    13   ar
    12    13     1    1
    13     1     2    1
    14     1     3    1
    15     3     4    1
    16     4     5    1
    17     5     6    1
    18     6     7    1
    19     7    24    1
    20    24    25   ar
    21    25    26   ar
    22    26    27   ar
    23    27    30    1
    24    30    31   ar
    25    31    32   ar
    26    32    33   ar
    27    33    34   ar
    28    34    35   ar
    29    35    36    1
    30    36    37    1
    31    37    38    1
    32    38    39   am
    33    39    40    1
    34    39    41    2
    35    27    28   ar
    36    28    29    1
    37    13    14   ar
    38    14    15   ar
    39    15    10   ar
    40     7     1    1
    41    28    24   ar
    42    35    30   ar
    43     2     8    1
    44     5     9    1
    45    38    42    1
@<TRIPOS>MOLECULE
*****
 42 45 0 0 0
SMALL
GASTEIGER

@<TRIPOS>ATOM
      1 C          61.8126   88.1281   10.5283 C.3     1  UNL1        0.1148
      2 O          62.7222   88.1159   11.7210 O.3     1  UNL1       -0.3822
      3 C          61.0873   87.6539    9.3039 C.3     1  UNL1        0.0486
      4 C          60.1473   88.5757    8.5849 C.3     1  UNL1        0.0714
      5 N          59.9327   89.9715    9.0904 N.3     1  UNL1       -0.2970
      6 C          60.6580   90.4456   10.3148 C.3     1  UNL1        0.0773
      7 C          61.5979   89.5239   11.0337 C.3     1  UNL1        0.0883
      8 H          63.1489   87.2478   11.7933 H       1  UNL1        0.2107
      9 H          58.9356   90.0643    9.2843 H       1  UNL1        0.1233
     10 C          63.4043   83.9279   10.2545 C.ar    1  UNL1        0.0072
     11 C          62.9955   84.4899   11.5838 C.ar    1  UNL1       -0.0021
     12 C          62.4650   85.8899   11.6750 C.ar    1  UNL1       -0.0023
     13 C          62.3432   86.7280   10.4370 C.ar    1  UNL1        0.0021
     14 C          62.7519   86.1660    9.1077 C.ar    1  UNL1       -0.0023
     15 C          63.2824   84.7659    9.0165 C.ar    1  UNL1       -0.0021
     16 C          63.9348   82.5278   10.1633 C.3     1  UNL1        0.1686
     17 O          64.0777   81.6975   11.4043 O.3     1  UNL1       -0.3489
     18 C          62.8943   80.9549   11.9502 C.3     1  UNL1        0.1451
     19 C          62.6691   80.8880   13.4318 C.3     1  UNL1        0.0593
     20 C          63.5950   81.6111   14.3645 C.3     1  UNL1        0.0052
     21 C          61.5180   80.0982   13.9805 C.3     1  UNL1        0.1447
     22 C          58.9603   79.9868   14.4226 C.3     1  UNL1        0.1741
     23 O          60.2249   80.7849   14.3067 O.3     1  UNL1       -0.3510
     24 C          62.3232   89.9980   12.2581 C.ar    1  UNL1        0.1103
     25 N          61.9060   89.7573   13.6787 N.ar    1  UNL1       -0.0807
     26 O          62.9179   90.4066   14.5755 O.2     1  UNL1       -0.3532
     27 C          63.9607   91.0487   13.7092 C.ar    1  UNL1        0.1823
     28 C          63.5932   90.7962   12.2770 C.ar    1  UNL1        0.0884
     29 BR         64.3607   91.2603   11.0747 Br      1  UNL1       -0.0444
     30 C          65.1604   91.8097   14.1905 C.ar    1  UNL1        0.0338
     31 C          65.7042   91.5607   15.5661 C.ar    1  UNL1        0.0028
     32 C          66.9039   92.3217   16.0474 C.ar    1  UNL1        0.0001
     33 C          67.5598   93.3317   15.1531 C.ar    1  UNL1       -0.0003
     34 C          67.0159   93.5806   13.7775 C.ar    1  UNL1       -0.0041
     35 C          65.8162   92.8196   13.2962 C.ar    1  UNL1       -0.0174
     36 C          65.2724   93.0686   11.9206 C.3     1  UNL1        0.0477
     37 C          65.8892   94.1227   11.0497 C.3     1  UNL1        0.0941
     38 N          66.6035   93.7313    9.7901 N.am    1  UNL1       -0.3040
     39 C          67.8110   92.8439    9.8574 C.2     1  UNL1        0.2230
     40 C          68.5253   92.4526    8.5978 C.3     1  UNL1        0.0946
     41 O          68.3041   92.3478   11.1843 O.2     1  UNL1       -0.2751
     42 H          66.2799   94.0569    8.9192 H       1  UNL1        0.1494
@<TRIPOS>BOND
     1    22    23    1
     2    23    21    1
     3    21    19    1
     4    19    20    1
     5    19    18    1
     6    18    17    1
     7    17    16    1
     8    16    10    1
     9    10    11   ar
    10    11    12   ar
    11    12    13   ar
    12    13     1    1
    13     1     2    1
    14     1     3    1
    15     3     4    1
    16     4     5    1
    17     5     6    1
    18     6     7    1
    19     7    24    1
    20    24    25   ar
    21    25    26   ar
    22    26    27   ar
    23    27    30    1
    24    30    31   ar
    25    31    32   ar
    26    32    33   ar
    27    33    34   ar
    28    34    35   ar
    29    35    36    1
    30    36    37    1
    31    37    38    1
    32    38    39   am
    33    39    40    1
    34    39    41    2
    35    27    28   ar
    36    28    29    1
    37    13    14   ar
    38    14    15   ar
    39    15    10   ar
    40     7     1    1
    41    28    24   ar
    42    35    30   ar
    43     2     8    1
    44     5     9    1
    45    38    42    1
@<TRIPOS>MOLECULE
*****
 42 45 0 0 0
SMALL
GASTEIGER

@<TRIPOS>ATOM
      1 C          63.4313   86.6912   15.8011 C.3     1  UNL1        0.1148
      2 O          63.7694   86.9694   14.3664 O.3     1  UNL1       -0.3822
      3 C          63.1240   85.9258   17.0539 C.3     1  UNL1        0.0486
      4 C          62.8453   86.6599   18.3320 C.3     1  UNL1        0.0714
      5 N          62.8738   88.1594   18.3572 N.3     1  UNL1       -0.2970
      6 C          63.1810   88.9248   17.1043 C.3     1  UNL1        0.0773
      7 C          63.4598   88.1907   15.8262 C.3     1  UNL1        0.0883
      8 H          63.8610   86.1309   13.8874 H       1  UNL1        0.2107
      9 H          63.5756   88.4290   19.0465 H       1  UNL1        0.1233
     10 C          63.6981   82.4825   14.2309 C.ar    1  UNL1        0.0072
     11 C          64.8684   83.4104   14.0919 C.ar    1  UNL1       -0.0021
     12 C          64.7794   84.8133   14.6153 C.ar    1  UNL1       -0.0023
     13 C          63.5202   85.2883   15.2777 C.ar    1  UNL1        0.0021
     14 C          62.3499   84.3604   15.4166 C.ar    1  UNL1       -0.0023
     15 C          62.4389   82.9575   14.8932 C.ar    1  UNL1       -0.0021
     16 C          63.7870   81.0796   13.7075 C.3     1  UNL1        0.1686
     17 O          63.3577   80.7744   12.3030 O.3     1  UNL1       -0.3489
     18 C          62.5585   81.7796   11.5279 C.3     1  UNL1        0.1451
     19 C          63.2003   83.0556   11.0695 C.3     1  UNL1        0.0593
     20 C          64.4538   83.0113   10.2469 C.3     1  UNL1        0.0052
     21 C          62.5885   84.3759   11.4336 C.3     1  UNL1        0.1447
     22 C          61.1630   86.3835   10.6045 C.3     1  UNL1        0.1741
     23 O          62.2301   85.3585   10.3584 O.3     1  UNL1       -0.3510
     24 C          63.7670   88.9561   14.5733 C.ar    1  UNL1        0.1103
     25 N          63.4961   88.4975   13.1710 N.ar    1  UNL1       -0.0807
     26 O          63.9607   89.5724   12.2338 O.2     1  UNL1       -0.3532
     27 C          64.5189   90.6955   13.0567 C.ar    1  UNL1        0.1823
     28 C          64.3992   90.3146   14.5026 C.ar    1  UNL1        0.0884
     29 BR         64.8350   91.1462   15.6725 Br      1  UNL1       -0.0444
     30 C          65.0955   91.9749   12.5269 C.ar    1  UNL1        0.0338
     31 C          65.8478   92.8943   13.4425 C.ar    1  UNL1        0.0028
     32 C          66.4245   94.1738   12.9127 C.ar    1  UNL1        0.0001
     33 C          66.2487   94.5336   11.4670 C.ar    1  UNL1       -0.0003
     34 C          65.4963   93.6140   10.5514 C.ar    1  UNL1       -0.0041
     35 C          64.9197   92.3347   11.0813 C.ar    1  UNL1       -0.0174
     36 C          64.1674   91.4152   10.1656 C.3     1  UNL1        0.0477
     37 C          62.6775   91.5356   10.0402 C.3     1  UNL1        0.0941
     38 N          61.7905   91.0644   11.1543 N.am    1  UNL1       -0.3040
     39 C          60.6400   90.1479   10.8606 C.2     1  UNL1        0.2230
     40 C          59.7530   89.6767   11.9747 C.3     1  UNL1        0.0946
     41 O          60.3765   89.7025    9.4527 O.2     1  UNL1       -0.2751
     42 H          61.9634   91.3567   12.0784 H       1  UNL1        0.1494
@<TRIPOS>BOND
     1    22    23    1
     2    23    21    1
     3    21    19    1
     4    19    20    1
     5    19    18    1
     6    18    17    1
     7    17    16    1
     8    16    10    1
     9    10    11   ar
    10    11    12   ar
    11    12    13   ar
    12    13     1    1
    13     1     2    1
    14     1     3    1
    15     3     4    1
    16     4     5    1
    17     5     6    1
    18     6     7    1
    19     7    24    1
    20    24    25   ar
    21    25    26   ar
    22    26    27   ar
    23    27    30    1
    24    30    31   ar
    25    31    32   ar
    26    32    33   ar
    27    33    34   ar
    28    34    35   ar
    29    35    36    1
    30    36    37    1
    31    37    38    1
    32    38    39   am
    33    39    40    1
    34    39    41    2
    35    27    28   ar
    36    28    29    1
    37    13    14   ar
    38    14    15   ar
    39    15    10   ar
    40     7     1    1
    41    28    24   ar
    42    35    30   ar
    43     2     8    1
    44     5     9    1
    45    38    42    1
