@<TRIPOS>MOLECULE
*****
 42 47 0 0 0
SMALL
GASTEIGER

@<TRIPOS>ATOM
      1 C          62.6235   86.0313   10.1003 C.2     1  UNL1        0.4208
      2 O          62.8276   87.4130    9.5530 O.2     1  UNL1       -0.2227
      3 N          62.8365   85.7641   11.5609 N.ar    1  UNL1       -0.2467
      4 C          63.2517   86.7729   12.5903 C.ar    1  UNL1        0.0629
      5 C          63.3434   86.0735   13.9141 C.ar    1  UNL1       -0.0048
      6 C          62.9848   84.6324   13.7028 C.ar    1  UNL1        0.0135
      7 C          62.9031   83.4696   14.6468 C.ar    1  UNL1        0.0012
      8 C          62.5081   82.1156   14.1364 C.ar    1  UNL1        0.0001
      9 C          62.1947   81.9244   12.6820 C.ar    1  UNL1        0.0015
     10 C          62.2765   83.0872   11.7380 C.ar    1  UNL1        0.0177
     11 C          62.6715   84.4412   12.2484 C.ar    1  UNL1        0.0692
     12 C          63.7416   86.8392   15.1409 C.3     1  UNL1        0.0568
     13 C          64.0481   88.3044   15.0440 C.3     1  UNL1        0.1567
     14 C          64.3546   89.7695   14.9470 C.2     1  UNL1        0.2441
     15 O          64.7528   90.5352   16.1738 O.2     1  UNL1       -0.2731
     16 N          64.2629   90.4690   13.6233 N.am    1  UNL1       -0.2778
     17 C          64.5039   91.8942   13.2223 C.3     1  UNL1        0.0938
     18 C          64.2547   92.0092   11.7476 C.3     1  UNL1        0.0271
     19 C          63.8596   90.6552   11.2372 C.3     1  UNL1        0.0240
     20 C          63.8648   89.7033   12.3964 C.3     1  UNL1        0.0992
     21 C          63.5582   88.2381   12.4934 C.3     1  UNL1        0.1321
     22 N          63.9564   89.0038   13.7202 N.am    1  UNL1       -0.2674
     23 C          64.2629   90.4690   13.6233 C.2     1  UNL1        0.2262
     24 O          64.1712   91.1683   12.2995 O.2     1  UNL1       -0.2749
     25 O          62.2065   84.9169    9.1870 O.3     1  UNL1       -0.4397
     26 C          62.6662   84.5744    7.1446 C.3     1  UNL1        0.0437
     27 C          61.5353   85.2280    7.8821 C.3     1  UNL1        0.1380
     28 C          60.4044   85.8816    8.6196 C.3     1  UNL1        0.0437
     29 C          60.8641   85.5390    6.5772 C.3     1  UNL1        0.0437
     30 C          64.3787   93.2589   10.9274 C.3     1  UNL1        0.0435
     31 C          65.6932   93.9773   10.8491 C.2     1  UNL1        0.0504
     32 O          66.9715   93.2308   11.0908 O.co2   1  UNL1       -0.5492
     33 O          65.7292   95.4424   10.5292 O.co2   1  UNL1       -0.5492
     34 C          64.6611   91.2347   14.8501 C.3     1  UNL1        0.0853
     35 C          66.0423   91.8095   14.9601 C.3     1  UNL1        0.0094
     36 C          67.1342   91.3152   14.0583 C.3     1  UNL1        0.0061
     37 C          68.5154   91.8900   14.1683 C.3     1  UNL1        0.0666
     38 C          68.8045   92.9591   15.1800 C.3     1  UNL1        0.2639
     39 F          69.5645   93.9795   15.9744 F       1  UNL1       -0.2043
     40 F          70.1605   92.8192   14.5541 F       1  UNL1       -0.2043
     41 C          67.7124   93.4533   16.0818 C.3     1  UNL1        0.0666
     42 C          66.3314   92.8785   15.9718 C.3     1  UNL1        0.0061
@<TRIPOS>UNITY_ATOM_ATTR
32 1
charge -1
@<TRIPOS>BOND
     1    26    27    1
     2    27    28    1
     3    27    29    1
     4    27    25    1
     5    25     1    1
     6     1     2    2
     7     1     3   am
     8     3     4   ar
     9     4     5   ar
    10     5     6   ar
    11     6     7   ar
    12     7     8   ar
    13     8     9   ar
    14     9    10   ar
    15    10    11   ar
    16     5    12    1
    17    13    12    1
    18    13    14    1
    19    14    15    2
    20    14    16   am
    21    16    17    1
    22    17    18    1
    23    18    30    1
    24    30    31    1
    25    31    32   ar
    26    31    33   ar
    27    18    19    1
    28    20    19    1
    29    20    21    1
    30    21    22    1
    31    22    23   am
    32    23    24    2
    33    23    34    1
    34    34    35    1
    35    35    36    1
    36    36    37    1
    37    37    38    1
    38    38    39    1
    39    38    40    1
    40    38    41    1
    41    41    42    1
    42    11     3   ar
    43    22    13    1
    44    42    35    1
    45    21     4    1
    46    11     6   ar
    47    20    16    1
@<TRIPOS>MOLECULE
*****
 42 47 0 0 0
SMALL
GASTEIGER

@<TRIPOS>ATOM
      1 C          63.2845   86.9129   13.2601 C.2     1  UNL1        0.4208
      2 O          64.2466   87.4624   14.2714 O.2     1  UNL1       -0.2227
      3 N          62.8466   87.7614   12.1032 N.ar    1  UNL1       -0.2467
      4 C          63.2833   89.1696   11.8276 C.ar    1  UNL1        0.0629
      5 C          62.6017   89.6291   10.5729 C.ar    1  UNL1       -0.0048
      6 C          61.7436   88.5048   10.0731 C.ar    1  UNL1        0.0135
      7 C          60.8440   88.3830    8.8791 C.ar    1  UNL1        0.0012
      8 C          60.0958   87.1069    8.6308 C.ar    1  UNL1        0.0001
      9 C          60.2472   85.9526    9.5766 C.ar    1  UNL1        0.0015
     10 C          61.1468   86.0743   10.7707 C.ar    1  UNL1        0.0177
     11 C          61.8950   87.3505   11.0190 C.ar    1  UNL1        0.0692
     12 C          62.8503   91.0119   10.0476 C.3     1  UNL1        0.0568
     13 C          63.7807   91.9352   10.7769 C.3     1  UNL1        0.1567
     14 C          64.7110   92.8586   11.5062 C.2     1  UNL1        0.2441
     15 O          64.9597   94.2414   10.9809 O.2     1  UNL1       -0.2731
     16 N          65.3927   92.3991   12.7609 N.am    1  UNL1       -0.2778
     17 C          66.3547   93.0811   13.6880 C.3     1  UNL1        0.0938
     18 C          66.7005   92.1198   14.7862 C.3     1  UNL1        0.0271
     19 C          65.9523   90.8437   14.5380 C.3     1  UNL1        0.0240
     20 C          65.1440   91.0163   13.2862 C.3     1  UNL1        0.0992
     21 C          64.2137   90.0930   12.5569 C.3     1  UNL1        0.1321
     22 N          64.4624   91.4758   12.0316 N.am    1  UNL1       -0.2674
     23 C          65.3927   92.3991   12.7609 C.2     1  UNL1        0.2262
     24 O          66.0743   91.9396   14.0155 O.2     1  UNL1       -0.2749
     25 O          62.7605   85.5151   13.4058 O.3     1  UNL1       -0.4397
     26 C          64.3400   84.1633   12.9840 C.3     1  UNL1        0.0437
     27 C          63.5320   84.5039   14.2010 C.3     1  UNL1        0.1380
     28 C          62.7239   84.8444   15.4180 C.3     1  UNL1        0.0437
     29 C          64.3034   83.4927   14.9962 C.3     1  UNL1        0.0437
     30 C          67.6312   92.3876   15.9317 C.3     1  UNL1        0.0435
     31 C          68.8036   93.3048   15.7468 C.2     1  UNL1        0.0504
     32 O          68.8875   94.5819   16.5291 O.co2   1  UNL1       -0.5492
     33 O          69.8922   92.9450   14.7795 O.co2   1  UNL1       -0.5492
     34 C          65.6414   93.7819   12.2356 C.3     1  UNL1        0.0853
     35 C          66.4570   93.9763   10.9918 C.3     1  UNL1        0.0094
     36 C          67.1118   92.7987   10.3327 C.3     1  UNL1        0.0061
     37 C          67.9275   92.9931    9.0890 C.3     1  UNL1        0.0666
     38 C          68.0883   94.3651    8.5043 C.3     1  UNL1        0.2639
     39 F          68.5298   95.4602    7.5792 F       1  UNL1       -0.2043
     40 F          68.8965   93.5678    7.5239 F       1  UNL1       -0.2043
     41 C          67.4335   95.5427    9.1635 C.3     1  UNL1        0.0666
     42 C          66.6179   95.3483   10.4072 C.3     1  UNL1        0.0061
@<TRIPOS>UNITY_ATOM_ATTR
32 1
charge -1
@<TRIPOS>BOND
     1    26    27    1
     2    27    28    1
     3    27    29    1
     4    27    25    1
     5    25     1    1
     6     1     2    2
     7     1     3   am
     8     3     4   ar
     9     4     5   ar
    10     5     6   ar
    11     6     7   ar
    12     7     8   ar
    13     8     9   ar
    14     9    10   ar
    15    10    11   ar
    16     5    12    1
    17    13    12    1
    18    13    14    1
    19    14    15    2
    20    14    16   am
    21    16    17    1
    22    17    18    1
    23    18    30    1
    24    30    31    1
    25    31    32   ar
    26    31    33   ar
    27    18    19    1
    28    20    19    1
    29    20    21    1
    30    21    22    1
    31    22    23   am
    32    23    24    2
    33    23    34    1
    34    34    35    1
    35    35    36    1
    36    36    37    1
    37    37    38    1
    38    38    39    1
    39    38    40    1
    40    38    41    1
    41    41    42    1
    42    11     3   ar
    43    22    13    1
    44    42    35    1
    45    21     4    1
    46    11     6   ar
    47    20    16    1
@<TRIPOS>MOLECULE
*****
 42 47 0 0 0
SMALL
GASTEIGER

@<TRIPOS>ATOM
      1 C          65.9958   91.2571   13.9904 C.2     1  UNL1        0.4208
      2 O          65.6630   89.8682   14.4490 O.2     1  UNL1       -0.2227
      3 N          65.3288   91.8249   12.7727 N.ar    1  UNL1       -0.2467
      4 C          64.3144   91.1264   11.9166 C.ar    1  UNL1        0.0629
      5 C          63.9178   92.0607   10.8122 C.ar    1  UNL1       -0.0048
      6 C          64.6872   93.3366   10.9857 C.ar    1  UNL1        0.0135
      7 C          64.7063   94.6123   10.1969 C.ar    1  UNL1        0.0012
      8 C          65.5975   95.7422   10.6198 C.ar    1  UNL1        0.0001
      9 C          66.4696   95.5965   11.8315 C.ar    1  UNL1        0.0015
     10 C          66.4505   94.3208   12.6203 C.ar    1  UNL1        0.0177
     11 C          65.5593   93.1909   12.1974 C.ar    1  UNL1        0.0692
     12 C          62.9073   91.6289    9.7912 C.3     1  UNL1        0.0568
     13 C          62.2934   90.2628    9.8746 C.3     1  UNL1        0.1567
     14 C          61.6795   88.8967    9.9581 C.2     1  UNL1        0.2441
     15 O          60.6691   88.4649    8.9370 O.2     1  UNL1       -0.2731
     16 N          62.0761   87.9624   11.0625 N.am    1  UNL1       -0.2778
     17 C          61.6445   86.5658   11.3993 C.3     1  UNL1        0.0938
     18 C          62.3883   86.1346   12.6284 C.3     1  UNL1        0.0271
     19 C          63.2795   87.2645   13.0513 C.3     1  UNL1        0.0240
     20 C          63.0866   88.3942   12.0835 C.3     1  UNL1        0.0992
     21 C          63.7005   89.7603   12.0001 C.3     1  UNL1        0.1321
     22 N          62.6900   89.3285   10.9791 N.am    1  UNL1       -0.2674
     23 C          62.0761   87.9624   11.0625 C.2     1  UNL1        0.2262
     24 O          62.4727   87.0282   12.1669 O.2     1  UNL1       -0.2749
     25 O          66.9956   92.0781   14.7495 O.3     1  UNL1       -0.4397
     26 C          68.0942   91.4999   13.0295 C.3     1  UNL1        0.0437
     27 C          68.4516   92.0011   14.3973 C.3     1  UNL1        0.1380
     28 C          68.8090   92.5024   15.7651 C.3     1  UNL1        0.0437
     29 C          69.9076   91.9242   14.0451 C.3     1  UNL1        0.0437
     30 C          62.2628   84.8065   13.3142 C.3     1  UNL1        0.0435
     31 C          63.3509   83.7837   13.1730 C.2     1  UNL1        0.0504
     32 O          64.1532   83.7119   11.9076 O.co2   1  UNL1       -0.5492
     33 O          63.6368   82.8326   14.2972 O.co2   1  UNL1       -0.5492
     34 C          61.0657   87.5306   10.0415 C.3     1  UNL1        0.0853
     35 C          61.4619   86.5831    8.9482 C.3     1  UNL1        0.0094
     36 C          60.4388   86.1097    7.9587 C.3     1  UNL1        0.0061
     37 C          60.8350   85.1622    6.8655 C.3     1  UNL1        0.0666
     38 C          62.2543   84.6880    6.7618 C.3     1  UNL1        0.2639
     39 F          63.4642   83.9619    6.2530 F       1  UNL1       -0.2043
     40 F          61.6514   83.9625    5.5955 F       1  UNL1       -0.2043
     41 C          63.2774   85.1614    7.7514 C.3     1  UNL1        0.0666
     42 C          62.8812   86.1089    8.8445 C.3     1  UNL1        0.0061
@<TRIPOS>UNITY_ATOM_ATTR
32 1
charge -1
@<TRIPOS>BOND
     1    26    27    1
     2    27    28    1
     3    27    29    1
     4    27    25    1
     5    25     1    1
     6     1     2    2
     7     1     3   am
     8     3     4   ar
     9     4     5   ar
    10     5     6   ar
    11     6     7   ar
    12     7     8   ar
    13     8     9   ar
    14     9    10   ar
    15    10    11   ar
    16     5    12    1
    17    13    12    1
    18    13    14    1
    19    14    15    2
    20    14    16   am
    21    16    17    1
    22    17    18    1
    23    18    30    1
    24    30    31    1
    25    31    32   ar
    26    31    33   ar
    27    18    19    1
    28    20    19    1
    29    20    21    1
    30    21    22    1
    31    22    23   am
    32    23    24    2
    33    23    34    1
    34    34    35    1
    35    35    36    1
    36    36    37    1
    37    37    38    1
    38    38    39    1
    39    38    40    1
    40    38    41    1
    41    41    42    1
    42    11     3   ar
    43    22    13    1
    44    42    35    1
    45    21     4    1
    46    11     6   ar
    47    20    16    1
@<TRIPOS>MOLECULE
*****
 42 47 0 0 0
SMALL
GASTEIGER

@<TRIPOS>ATOM
      1 C          66.4413   92.3947   14.4113 C.2     1  UNL1        0.4208
      2 O          66.3081   91.1439   15.2286 O.2     1  UNL1       -0.2227
      3 N          65.7444   92.5034   13.0875 N.ar    1  UNL1       -0.2467
      4 C          64.8848   91.4496   12.4545 C.ar    1  UNL1        0.0629
      5 C          64.3939   91.9800   11.1400 C.ar    1  UNL1       -0.0048
      6 C          64.9501   93.3614   10.9606 C.ar    1  UNL1        0.0135
      7 C          64.8044   94.3666    9.8569 C.ar    1  UNL1        0.0012
      8 C          65.4933   95.6952    9.9567 C.ar    1  UNL1        0.0001
      9 C          66.3280   96.0187   11.1603 C.ar    1  UNL1        0.0015
     10 C          66.4737   95.0136   12.2641 C.ar    1  UNL1        0.0177
     11 C          65.7848   93.6849   12.1642 C.ar    1  UNL1        0.0692
     12 C          63.5039   91.1364   10.2762 C.3     1  UNL1        0.0568
     13 C          63.1047   89.7624   10.7269 C.3     1  UNL1        0.1567
     14 C          62.7056   88.3885   11.1776 C.2     1  UNL1        0.2441
     15 O          61.8155   87.5449   10.3138 O.2     1  UNL1       -0.2731
     16 N          63.1965   87.8582   12.4920 N.am    1  UNL1       -0.2778
     17 C          62.9718   86.5519   13.1943 C.3     1  UNL1        0.0938
     18 C          63.7231   86.5883   14.4921 C.3     1  UNL1        0.0271
     19 C          64.4120   87.9169   14.5919 C.3     1  UNL1        0.0240
     20 C          64.0865   88.7018   13.3558 C.3     1  UNL1        0.0992
     21 C          64.4857   90.0757   12.9051 C.3     1  UNL1        0.1321
     22 N          63.5956   89.2321   12.0414 N.am    1  UNL1       -0.2674
     23 C          63.1965   87.8582   12.4920 C.2     1  UNL1        0.2262
     24 O          63.6874   87.3280   13.8064 O.2     1  UNL1       -0.2749
     25 O          67.2714   93.5367   14.9179 O.3     1  UNL1       -0.4397
     26 C          68.8161   92.2585   14.2249 C.3     1  UNL1        0.0437
     27 C          68.7087   93.3142   15.2850 C.3     1  UNL1        0.1380
     28 C          68.6013   94.3700   16.3452 C.3     1  UNL1        0.0437
     29 C          70.1460   93.0918   15.6522 C.3     1  UNL1        0.0437
     30 C          63.7760   85.4889   15.5112 C.3     1  UNL1        0.0435
     31 C          62.5109   84.9948   16.1478 C.2     1  UNL1        0.0504
     32 O          61.8223   85.8245   17.1906 O.co2   1  UNL1       -0.5492
     33 O          61.9344   83.6708   15.7417 O.co2   1  UNL1       -0.5492
     34 C          62.3064   87.0146   11.6282 C.3     1  UNL1        0.0853
     35 C          62.6482   85.5755   11.3792 C.3     1  UNL1        0.0094
     36 C          62.2455   84.5263   12.3726 C.3     1  UNL1        0.0061
     37 C          62.5873   83.0871   12.1236 C.3     1  UNL1        0.0666
     38 C          63.3317   82.6972   10.8811 C.3     1  UNL1        0.2639
     39 F          64.0193   81.8394    9.8605 F       1  UNL1       -0.2043
     40 F          63.1678   81.3500   11.5201 F       1  UNL1       -0.2043
     41 C          63.7344   83.7465    9.8877 C.3     1  UNL1        0.0666
     42 C          63.3926   85.1856   10.1367 C.3     1  UNL1        0.0061
@<TRIPOS>UNITY_ATOM_ATTR
32 1
charge -1
@<TRIPOS>BOND
     1    26    27    1
     2    27    28    1
     3    27    29    1
     4    27    25    1
     5    25     1    1
     6     1     2    2
     7     1     3   am
     8     3     4   ar
     9     4     5   ar
    10     5     6   ar
    11     6     7   ar
    12     7     8   ar
    13     8     9   ar
    14     9    10   ar
    15    10    11   ar
    16     5    12    1
    17    13    12    1
    18    13    14    1
    19    14    15    2
    20    14    16   am
    21    16    17    1
    22    17    18    1
    23    18    30    1
    24    30    31    1
    25    31    32   ar
    26    31    33   ar
    27    18    19    1
    28    20    19    1
    29    20    21    1
    30    21    22    1
    31    22    23   am
    32    23    24    2
    33    23    34    1
    34    34    35    1
    35    35    36    1
    36    36    37    1
    37    37    38    1
    38    38    39    1
    39    38    40    1
    40    38    41    1
    41    41    42    1
    42    11     3   ar
    43    22    13    1
    44    42    35    1
    45    21     4    1
    46    11     6   ar
    47    20    16    1
