@<TRIPOS>MOLECULE
*****
 37 41 0 0 0
SMALL
GASTEIGER

@<TRIPOS>ATOM
      1 N          62.9569   85.7543   11.6494 N.ar    1  UNL1       -0.3063
      2 C          63.2793   84.5419   12.4717 C.ar    1  UNL1        0.1240
      3 C          63.7793   85.0072   13.8071 C.ar    1  UNL1        0.1174
      4 C          63.7659   86.5071   13.8102 C.ar    1  UNL1        0.1157
      5 N          64.1508   87.5121   14.8551 N.ar    1  UNL1       -0.2229
      6 C          64.0274   88.9789   14.5664 C.ar    1  UNL1        0.1812
      7 N          63.5191   89.4406   13.2327 N.ar    1  UNL1       -0.2728
      8 C          63.1342   88.4356   12.1879 C.ar    1  UNL1        0.2797
      9 O          62.6259   88.8973   10.8543 O.2     1  UNL1       -0.2653
     10 C          63.2576   86.9688   12.4767 C.ar    1  UNL1        0.1366
     11 N          63.1283   83.1147   12.0351 N.pl3   1  UNL1       -0.2926
     12 C          63.5455   82.7048   10.6539 C.3     1  UNL1        0.0922
     13 C          63.3945   81.2777   10.2173 C.3     1  UNL1        0.0229
     14 C          62.8263   80.2606   11.1621 C.3     1  UNL1        0.0190
     15 C          62.4091   80.6705   12.5433 C.3     1  UNL1        0.0709
     16 N          61.8408   79.6533   13.4880 N.3     1  UNL1       -0.3208
     17 C          62.5601   82.0976   12.9798 C.3     1  UNL1        0.1075
     18 H          61.8105   78.7428   13.0293 H       1  UNL1        0.1189
     19 H          60.8967   79.9298   13.7576 H       1  UNL1        0.1189
     20 C          64.2161   84.1271   14.9406 C.1     1  UNL1        0.1048
     21 N          64.6527   83.2469   16.0741 N.1     1  UNL1       -0.1907
     22 C          62.4268   85.7524   10.2461 C.3     1  UNL1        0.1332
     23 C          59.1539   86.8282    8.2762 C.3     1  UNL1        0.0261
     24 C          60.5098   86.2561    8.5665 C.2     1  UNL1       -0.0460
     25 C          61.3046   85.6157    7.4673 C.3     1  UNL1        0.0261
     26 C          61.0709   86.3245    9.9558 C.2     1  UNL1       -0.0102
     27 C          63.3958   90.9074   12.9440 C.3     1  UNL1        0.1374
     28 C          64.6157   91.7091   12.5989 C.ar    1  UNL1        0.0035
     29 C          64.9231   92.0277   11.1658 C.ar    1  UNL1        0.0183
     30 C          66.1430   92.8294   10.8207 C.ar    1  UNL1        0.0986
     31 N          67.0556   93.3124   11.9087 N.ar    1  UNL1       -0.2439
     32 C          66.7482   92.9938   13.3419 C.ar    1  UNL1        0.0811
     33 C          67.6608   93.4768   14.4300 C.ar    1  UNL1        0.0191
     34 C          67.3534   93.1581   15.8631 C.ar    1  UNL1        0.0015
     35 C          66.1334   92.3565   16.2082 C.ar    1  UNL1        0.0001
     36 C          65.2209   91.8734   15.1202 C.ar    1  UNL1        0.0012
     37 C          65.5283   92.1921   13.6870 C.ar    1  UNL1        0.0156
@<TRIPOS>BOND
     1    23    24    1
     2    24    25    1
     3    24    26    2
     4    26    22    1
     5    22     1    1
     6     1     2   ar
     7     2    11    1
     8    11    12    1
     9    12    13    1
    10    13    14    1
    11    14    15    1
    12    15    16    1
    13    15    17    1
    14     2     3   ar
    15     3    20    1
    16    20    21    3
    17     3     4   ar
    18     4     5   ar
    19     5     6   ar
    20     6     7   ar
    21     7    27    1
    22    27    28    1
    23    28    29   ar
    24    29    30   ar
    25    30    31   ar
    26    31    32   ar
    27    32    33   ar
    28    33    34   ar
    29    34    35   ar
    30    35    36   ar
    31    36    37   ar
    32     7     8   ar
    33     8     9    2
    34     8    10   ar
    35    10     1   ar
    36    17    11    1
    37    10     4   ar
    38    37    28   ar
    39    37    32   ar
    40    16    18    1
    41    16    19    1
@<TRIPOS>MOLECULE
*****
 37 41 0 0 0
SMALL
GASTEIGER

@<TRIPOS>ATOM
      1 N          63.4680   86.1254   12.7818 N.ar    1  UNL1       -0.3063
      2 C          62.8382   85.2560   11.7342 C.ar    1  UNL1        0.1240
      3 C          62.1938   86.1497   10.7163 C.ar    1  UNL1        0.1174
      4 C          62.4252   87.5714   11.1349 C.ar    1  UNL1        0.1157
      5 N          62.0206   88.8777   10.5186 N.ar    1  UNL1       -0.2229
      6 C          62.4035   90.1690   11.1788 C.ar    1  UNL1        0.1812
      7 N          63.1910   90.1540   12.4554 N.ar    1  UNL1       -0.2728
      8 C          63.5956   88.8477   13.0717 C.ar    1  UNL1        0.2797
      9 O          64.3831   88.8327   14.3483 O.2     1  UNL1       -0.2653
     10 C          63.2127   87.5564   12.4114 C.ar    1  UNL1        0.1366
     11 N          62.8508   83.7563   11.7088 N.pl3   1  UNL1       -0.2926
     12 C          63.5004   83.0308   10.5679 C.3     1  UNL1        0.0922
     13 C          63.5130   81.5311   10.5426 C.3     1  UNL1        0.0229
     14 C          62.8758   80.7569   11.6582 C.3     1  UNL1        0.0190
     15 C          62.2262   81.4823   12.7991 C.3     1  UNL1        0.0709
     16 N          61.5890   80.7080   13.9147 N.3     1  UNL1       -0.3208
     17 C          62.2136   82.9820   12.8244 C.3     1  UNL1        0.1075
     18 H          61.6897   79.7088   13.7359 H       1  UNL1        0.1189
     19 H          60.5986   80.9452   13.9708 H       1  UNL1        0.1189
     20 C          61.4487   85.7006    9.4944 C.1     1  UNL1        0.1048
     21 N          60.7034   85.2515    8.2725 N.1     1  UNL1       -0.1907
     22 C          64.2208   85.6477   13.9881 C.3     1  UNL1        0.1332
     23 C          62.8514   86.3548   17.6452 C.3     1  UNL1        0.0261
     24 C          63.0680   85.6945   16.3159 C.2     1  UNL1       -0.0460
     25 C          62.3483   84.4206   15.9851 C.3     1  UNL1        0.0261
     26 C          64.0042   86.3080   15.3174 C.2     1  UNL1       -0.0102
     27 C          63.5739   91.4453   13.1156 C.3     1  UNL1        0.1374
     28 C          64.9107   92.0644   12.8335 C.ar    1  UNL1        0.0035
     29 C          65.3033   92.3911   11.4231 C.ar    1  UNL1        0.0183
     30 C          66.6401   93.0102   11.1410 C.ar    1  UNL1        0.0986
     31 N          67.5844   93.3026   12.2691 N.ar    1  UNL1       -0.2439
     32 C          67.1919   92.9759   13.6796 C.ar    1  UNL1        0.0811
     33 C          68.1361   93.2682   14.8077 C.ar    1  UNL1        0.0191
     34 C          67.7436   92.9415   16.2181 C.ar    1  UNL1        0.0015
     35 C          66.4068   92.3224   16.5002 C.ar    1  UNL1        0.0001
     36 C          65.4625   92.0300   15.3721 C.ar    1  UNL1        0.0012
     37 C          65.8550   92.3567   13.9617 C.ar    1  UNL1        0.0156
@<TRIPOS>BOND
     1    23    24    1
     2    24    25    1
     3    24    26    2
     4    26    22    1
     5    22     1    1
     6     1     2   ar
     7     2    11    1
     8    11    12    1
     9    12    13    1
    10    13    14    1
    11    14    15    1
    12    15    16    1
    13    15    17    1
    14     2     3   ar
    15     3    20    1
    16    20    21    3
    17     3     4   ar
    18     4     5   ar
    19     5     6   ar
    20     6     7   ar
    21     7    27    1
    22    27    28    1
    23    28    29   ar
    24    29    30   ar
    25    30    31   ar
    26    31    32   ar
    27    32    33   ar
    28    33    34   ar
    29    34    35   ar
    30    35    36   ar
    31    36    37   ar
    32     7     8   ar
    33     8     9    2
    34     8    10   ar
    35    10     1   ar
    36    17    11    1
    37    10     4   ar
    38    37    28   ar
    39    37    32   ar
    40    16    18    1
    41    16    19    1
@<TRIPOS>MOLECULE
*****
 37 41 0 0 0
SMALL
GASTEIGER

@<TRIPOS>ATOM
      1 N          63.6333   85.9579   13.1121 N.ar    1  UNL1       -0.3063
      2 C          62.9692   85.2006   12.0005 C.ar    1  UNL1        0.1240
      3 C          62.3157   86.1953   11.0877 C.ar    1  UNL1        0.1174
      4 C          62.5759   87.5675   11.6350 C.ar    1  UNL1        0.1157
      5 N          62.1765   88.9316   11.1558 N.ar    1  UNL1       -0.2229
      6 C          62.5914   90.1489   11.9277 C.ar    1  UNL1        0.1812
      7 N          63.4058   90.0022   13.1789 N.ar    1  UNL1       -0.2728
      8 C          63.8051   88.6381   13.6581 C.ar    1  UNL1        0.2797
      9 O          64.6194   88.4913   14.9092 O.2     1  UNL1       -0.2653
     10 C          63.3902   87.4207   12.8861 C.ar    1  UNL1        0.1366
     11 N          62.9603   83.7101   11.8316 N.pl3   1  UNL1       -0.2926
     12 C          63.5898   83.0888   10.6201 C.3     1  UNL1        0.0922
     13 C          63.5808   81.5984   10.4512 C.3     1  UNL1        0.0229
     14 C          62.9423   80.7293   11.4937 C.3     1  UNL1        0.0190
     15 C          62.3128   81.3505   12.7052 C.3     1  UNL1        0.0709
     16 N          61.6742   80.4814   13.7477 N.3     1  UNL1       -0.3208
     17 C          62.3217   82.8409   12.8741 C.3     1  UNL1        0.1075
     18 H          61.7592   79.5027   13.4730 H       1  UNL1        0.1189
     19 H          60.6878   80.7253   13.8361 H       1  UNL1        0.1189
     20 C          61.5385   85.8744    9.8456 C.1     1  UNL1        0.1048
     21 N          60.7611   85.5534    8.6035 N.1     1  UNL1       -0.1907
     22 C          64.4050   85.3577   14.2498 C.3     1  UNL1        0.1332
     23 C          62.8765   86.1724   17.8205 C.3     1  UNL1        0.0261
     24 C          63.0253   85.6142   16.4362 C.2     1  UNL1       -0.0460
     25 C          61.9430   84.7539   15.8542 C.3     1  UNL1        0.0261
     26 C          64.2562   85.9160   15.6340 C.2     1  UNL1       -0.0102
     27 C          63.8207   91.2195   13.9508 C.3     1  UNL1        0.1374
     28 C          65.2343   91.7142   13.8682 C.ar    1  UNL1        0.0035
     29 C          66.1356   91.6125   15.0629 C.ar    1  UNL1        0.0183
     30 C          67.5492   92.1072   14.9803 C.ar    1  UNL1        0.0986
     31 N          68.0617   92.7036   13.7029 N.ar    1  UNL1       -0.2439
     32 C          67.1604   92.8054   12.5081 C.ar    1  UNL1        0.0811
     33 C          67.6729   93.4017   11.2308 C.ar    1  UNL1        0.0191
     34 C          66.7717   93.5034   10.0360 C.ar    1  UNL1        0.0015
     35 C          65.3580   93.0087   10.1187 C.ar    1  UNL1        0.0001
     36 C          64.8456   92.4123   11.3960 C.ar    1  UNL1        0.0012
     37 C          65.7468   92.3106   12.5907 C.ar    1  UNL1        0.0156
@<TRIPOS>BOND
     1    23    24    1
     2    24    25    1
     3    24    26    2
     4    26    22    1
     5    22     1    1
     6     1     2   ar
     7     2    11    1
     8    11    12    1
     9    12    13    1
    10    13    14    1
    11    14    15    1
    12    15    16    1
    13    15    17    1
    14     2     3   ar
    15     3    20    1
    16    20    21    3
    17     3     4   ar
    18     4     5   ar
    19     5     6   ar
    20     6     7   ar
    21     7    27    1
    22    27    28    1
    23    28    29   ar
    24    29    30   ar
    25    30    31   ar
    26    31    32   ar
    27    32    33   ar
    28    33    34   ar
    29    34    35   ar
    30    35    36   ar
    31    36    37   ar
    32     7     8   ar
    33     8     9    2
    34     8    10   ar
    35    10     1   ar
    36    17    11    1
    37    10     4   ar
    38    37    28   ar
    39    37    32   ar
    40    16    18    1
    41    16    19    1
@<TRIPOS>MOLECULE
*****
 37 41 0 0 0
SMALL
GASTEIGER

@<TRIPOS>ATOM
      1 N          64.6326   91.6011   12.1371 N.ar    1  UNL1       -0.3063
      2 C          64.9696   91.5124   13.5961 C.ar    1  UNL1        0.1240
      3 C          63.8193   90.8539   14.2983 C.ar    1  UNL1        0.1174
      4 C          62.7713   90.5357   13.2734 C.ar    1  UNL1        0.1157
      5 N          61.4243   89.8852   13.3838 N.ar    1  UNL1       -0.2229
      6 C          60.5799   89.6964   12.1585 C.ar    1  UNL1        0.1812
      7 N          61.0825   90.1582   10.8228 N.ar    1  UNL1       -0.2728
      8 C          62.4296   90.8087   10.7124 C.ar    1  UNL1        0.2797
      9 O          62.9323   91.2705    9.3767 O.2     1  UNL1       -0.2653
     10 C          63.2740   90.9975   11.9377 C.ar    1  UNL1        0.1366
     11 N          66.2349   91.9970   14.2397 N.pl3   1  UNL1       -0.2926
     12 C          66.1799   92.7131   15.5566 C.3     1  UNL1        0.0922
     13 C          67.4451   93.1977   16.2002 C.3     1  UNL1        0.0229
     14 C          68.7654   92.9662   15.5270 C.3     1  UNL1        0.0190
     15 C          68.8205   92.2501   14.2101 C.3     1  UNL1        0.0709
     16 N          70.1407   92.0186   13.5369 N.3     1  UNL1       -0.3208
     17 C          67.5552   91.7655   13.5665 C.3     1  UNL1        0.1075
     18 H          70.8880   92.4106   14.1099 H       1  UNL1        0.1189
     19 H          70.1403   92.4712   12.6228 H       1  UNL1        0.1189
     20 C          63.7322   90.5645   15.7675 C.1     1  UNL1        0.1048
     21 N          63.6451   90.2751   17.2368 N.1     1  UNL1       -0.1907
     22 C          65.5016   92.1900   11.0657 C.3     1  UNL1        0.1332
     23 C          66.9432   95.7489   10.0624 C.3     1  UNL1        0.0261
     24 C          66.7907   94.2606   10.1706 C.2     1  UNL1       -0.0460
     25 C          67.7748   93.3545    9.4918 C.3     1  UNL1        0.0261
     26 C          65.6542   93.6783   10.9575 C.2     1  UNL1       -0.0102
     27 C          60.2381   89.9694    9.5975 C.3     1  UNL1        0.1374
     28 C          60.1785   88.6289    8.9270 C.ar    1  UNL1        0.0035
     29 C          59.3452   88.4437    7.6936 C.ar    1  UNL1        0.0183
     30 C          59.2856   87.1032    7.0231 C.ar    1  UNL1        0.0986
     31 N          60.0592   85.9480    7.5859 N.ar    1  UNL1       -0.2439
     32 C          60.8925   86.1332    8.8194 C.ar    1  UNL1        0.0811
     33 C          61.6662   84.9779    9.3823 C.ar    1  UNL1        0.0191
     34 C          62.4994   85.1631   10.6157 C.ar    1  UNL1        0.0015
     35 C          62.5591   86.5036   11.2862 C.ar    1  UNL1        0.0001
     36 C          61.7855   87.6588   10.7233 C.ar    1  UNL1        0.0012
     37 C          60.9522   87.4736    9.4899 C.ar    1  UNL1        0.0156
@<TRIPOS>BOND
     1    23    24    1
     2    24    25    1
     3    24    26    2
     4    26    22    1
     5    22     1    1
     6     1     2   ar
     7     2    11    1
     8    11    12    1
     9    12    13    1
    10    13    14    1
    11    14    15    1
    12    15    16    1
    13    15    17    1
    14     2     3   ar
    15     3    20    1
    16    20    21    3
    17     3     4   ar
    18     4     5   ar
    19     5     6   ar
    20     6     7   ar
    21     7    27    1
    22    27    28    1
    23    28    29   ar
    24    29    30   ar
    25    30    31   ar
    26    31    32   ar
    27    32    33   ar
    28    33    34   ar
    29    34    35   ar
    30    35    36   ar
    31    36    37   ar
    32     7     8   ar
    33     8     9    2
    34     8    10   ar
    35    10     1   ar
    36    17    11    1
    37    10     4   ar
    38    37    28   ar
    39    37    32   ar
    40    16    18    1
    41    16    19    1
@<TRIPOS>MOLECULE
*****
 37 41 0 0 0
SMALL
GASTEIGER

@<TRIPOS>ATOM
      1 N          63.9835   87.7835   13.4652 N.ar    1  UNL1       -0.3063
      2 C          63.1102   86.8558   12.6736 C.ar    1  UNL1        0.1240
      3 C          62.5653   87.6185   11.5025 C.ar    1  UNL1        0.1174
      4 C          63.1018   89.0176   11.5704 C.ar    1  UNL1        0.1157
      5 N          62.9055   90.2119   10.6844 N.ar    1  UNL1       -0.2229
      6 C          63.5857   91.5082   11.0113 C.ar    1  UNL1        0.1812
      7 N          64.4622   91.6102   12.2243 N.ar    1  UNL1       -0.2728
      8 C          64.6585   90.4159   13.1103 C.ar    1  UNL1        0.2797
      9 O          65.5350   90.5179   14.3233 O.2     1  UNL1       -0.2653
     10 C          63.9783   89.1195   12.7833 C.ar    1  UNL1        0.1366
     11 N          62.8309   85.4177   12.9964 N.pl3   1  UNL1       -0.2926
     12 C          62.2476   85.0476   14.3278 C.3     1  UNL1        0.0922
     13 C          61.9683   83.6096   14.6506 C.3     1  UNL1        0.0229
     14 C          62.2722   82.5418   13.6419 C.3     1  UNL1        0.0190
     15 C          62.8555   82.9120   12.3105 C.3     1  UNL1        0.0709
     16 N          63.1594   81.8442   11.3018 N.3     1  UNL1       -0.3208
     17 C          63.1348   84.3499   11.9877 C.3     1  UNL1        0.1075
     18 H          62.9090   80.9329   11.6855 H       1  UNL1        0.1189
     19 H          64.1552   81.8583   11.0813 H       1  UNL1        0.1189
     20 C          61.6454   87.0771   10.4487 C.1     1  UNL1        0.1048
     21 N          60.7253   86.5359    9.3947 N.1     1  UNL1       -0.1907
     22 C          64.7308   87.4362   14.7185 C.3     1  UNL1        0.1332
     23 C          62.5352   86.7550   17.9536 C.3     1  UNL1        0.0261
     24 C          63.2329   87.4797   16.8408 C.2     1  UNL1       -0.0460
     25 C          63.1301   88.9727   16.7378 C.3     1  UNL1        0.0261
     26 C          64.0332   86.7115   15.8313 C.2     1  UNL1       -0.0102
     27 C          65.1424   92.9065   12.5512 C.3     1  UNL1        0.1374
     28 C          65.6391   93.7922   11.4472 C.ar    1  UNL1        0.0035
     29 C          65.0433   95.1551   11.2535 C.ar    1  UNL1        0.0183
     30 C          65.5400   96.0407   10.1495 C.ar    1  UNL1        0.0986
     31 N          66.6325   95.5636    9.2392 N.ar    1  UNL1       -0.2439
     32 C          67.2283   94.2006    9.4328 C.ar    1  UNL1        0.0811
     33 C          68.3208   93.7234    8.5225 C.ar    1  UNL1        0.0191
     34 C          68.9166   92.3605    8.7162 C.ar    1  UNL1        0.0015
     35 C          68.4199   91.4749    9.8202 C.ar    1  UNL1        0.0001
     36 C          67.3274   91.9521   10.7306 C.ar    1  UNL1        0.0012
     37 C          66.7316   93.3149   10.5369 C.ar    1  UNL1        0.0156
@<TRIPOS>BOND
     1    23    24    1
     2    24    25    1
     3    24    26    2
     4    26    22    1
     5    22     1    1
     6     1     2   ar
     7     2    11    1
     8    11    12    1
     9    12    13    1
    10    13    14    1
    11    14    15    1
    12    15    16    1
    13    15    17    1
    14     2     3   ar
    15     3    20    1
    16    20    21    3
    17     3     4   ar
    18     4     5   ar
    19     5     6   ar
    20     6     7   ar
    21     7    27    1
    22    27    28    1
    23    28    29   ar
    24    29    30   ar
    25    30    31   ar
    26    31    32   ar
    27    32    33   ar
    28    33    34   ar
    29    34    35   ar
    30    35    36   ar
    31    36    37   ar
    32     7     8   ar
    33     8     9    2
    34     8    10   ar
    35    10     1   ar
    36    17    11    1
    37    10     4   ar
    38    37    28   ar
    39    37    32   ar
    40    16    18    1
    41    16    19    1
@<TRIPOS>MOLECULE
*****
 37 41 0 0 0
SMALL
GASTEIGER

@<TRIPOS>ATOM
      1 N          63.6979   86.7151   13.3842 N.ar    1  UNL1       -0.3063
      2 C          62.9108   85.7953   12.4985 C.ar    1  UNL1        0.1240
      3 C          62.3215   86.6132   11.3878 C.ar    1  UNL1        0.1174
      4 C          62.7443   88.0385   11.5871 C.ar    1  UNL1        0.1157
      5 N          62.4645   89.2872   10.8045 N.ar    1  UNL1       -0.2229
      6 C          63.0355   90.5989   11.2557 C.ar    1  UNL1        0.1812
      7 N          63.8862   90.6618   12.4896 N.ar    1  UNL1       -0.2728
      8 C          64.1659   89.4131   13.2722 C.ar    1  UNL1        0.2797
      9 O          65.0166   89.4760   14.5060 O.2     1  UNL1       -0.2653
     10 C          63.5949   88.1014   12.8209 C.ar    1  UNL1        0.1366
     11 N          62.7427   84.3170   12.6898 N.pl3   1  UNL1       -0.2926
     12 C          62.2598   83.7811   14.0049 C.3     1  UNL1        0.0922
     13 C          62.0916   82.3029   14.1962 C.3     1  UNL1        0.0229
     14 C          62.4065   81.3606   13.0724 C.3     1  UNL1        0.0190
     15 C          62.8894   81.8965   11.7573 C.3     1  UNL1        0.0709
     16 N          63.2043   80.9542   10.6335 N.3     1  UNL1       -0.3208
     17 C          63.0576   83.3747   11.5660 C.3     1  UNL1        0.1075
     18 H          63.0346   79.9951   10.9364 H       1  UNL1        0.1189
     19 H          64.1832   81.0584   10.3666 H       1  UNL1        0.1189
     20 C          61.4605   86.0966   10.2735 C.1     1  UNL1        0.1048
     21 N          60.5994   85.5800    9.1591 N.1     1  UNL1       -0.1907
     22 C          64.4550   86.3181   14.6168 C.3     1  UNL1        0.1332
     23 C          62.4101   86.3180   18.0180 C.3     1  UNL1        0.0261
     24 C          63.1499   86.8089   16.8090 C.2     1  UNL1       -0.0460
     25 C          63.3242   88.2816   16.5832 C.3     1  UNL1        0.0261
     26 C          63.7152   85.8273   15.8258 C.2     1  UNL1       -0.0102
     27 C          64.4571   91.9734   12.9408 C.3     1  UNL1        0.1374
     28 C          64.9851   92.1210   14.3371 C.ar    1  UNL1        0.0035
     29 C          64.0363   92.1509   15.4984 C.ar    1  UNL1        0.0183
     30 C          64.5642   92.2985   16.8946 C.ar    1  UNL1        0.0986
     31 N          66.0410   92.4162   17.1295 N.ar    1  UNL1       -0.2439
     32 C          66.9899   92.3863   15.9681 C.ar    1  UNL1        0.0811
     33 C          68.4667   92.5040   16.2030 C.ar    1  UNL1        0.0191
     34 C          69.4155   92.4741   15.0417 C.ar    1  UNL1        0.0015
     35 C          68.8876   92.3265   13.6454 C.ar    1  UNL1        0.0001
     36 C          67.4108   92.2088   13.4105 C.ar    1  UNL1        0.0012
     37 C          66.4620   92.2387   14.5719 C.ar    1  UNL1        0.0156
@<TRIPOS>BOND
     1    23    24    1
     2    24    25    1
     3    24    26    2
     4    26    22    1
     5    22     1    1
     6     1     2   ar
     7     2    11    1
     8    11    12    1
     9    12    13    1
    10    13    14    1
    11    14    15    1
    12    15    16    1
    13    15    17    1
    14     2     3   ar
    15     3    20    1
    16    20    21    3
    17     3     4   ar
    18     4     5   ar
    19     5     6   ar
    20     6     7   ar
    21     7    27    1
    22    27    28    1
    23    28    29   ar
    24    29    30   ar
    25    30    31   ar
    26    31    32   ar
    27    32    33   ar
    28    33    34   ar
    29    34    35   ar
    30    35    36   ar
    31    36    37   ar
    32     7     8   ar
    33     8     9    2
    34     8    10   ar
    35    10     1   ar
    36    17    11    1
    37    10     4   ar
    38    37    28   ar
    39    37    32   ar
    40    16    18    1
    41    16    19    1
