@<TRIPOS>MOLECULE
*****
 36 40 0 0 0
SMALL
GASTEIGER

@<TRIPOS>ATOM
      1 C          66.1322   96.8560    1.3573 C.3     1  UNL1        0.0948
      2 C          65.4629   96.3450    0.1160 C.2     1  UNL1        0.2262
      3 O          66.0836   96.5928   -1.2269 O.2     1  UNL1       -0.2749
      4 N          64.1729   95.5863    0.2175 N.am    1  UNL1       -0.2786
      5 C          63.3920   95.0175   -0.9298 C.3     1  UNL1        0.1029
      6 C          62.1738   94.3428   -0.3722 C.3     1  UNL1        0.1053
      7 C          62.2019   94.4948    1.1198 C.3     1  UNL1        0.0888
      8 C          63.4374   95.2633    1.4843 C.3     1  UNL1        0.1014
      9 C          61.1748   93.9703    2.0790 C.ar    1  UNL1        0.1447
     10 N          59.8448   94.5971    2.3763 N.ar    1  UNL1       -0.1336
     11 N          59.1453   93.7411    3.3903 N.ar    1  UNL1       -0.1337
     12 C          60.0431   92.5855    3.7197 C.ar    1  UNL1        0.1425
     13 N          61.2973   92.7271    2.9093 N.ar    1  UNL1       -0.3040
     14 C          59.7398   91.4819    4.6893 C.3     1  UNL1        0.0588
     15 C          58.4875   90.8933    5.2686 C.3     1  UNL1        0.0075
     16 C          59.3108   89.9212    6.0606 C.3     1  UNL1        0.0009
     17 C          60.5631   90.5098    5.4814 C.3     1  UNL1        0.0075
     18 C          59.0074   88.8177    7.0302 C.3     1  UNL1        0.0000
     19 C          59.9849   88.4855    8.1184 C.3     1  UNL1        0.0000
     20 C          60.4723   89.5616    9.0428 C.3     1  UNL1        0.0000
     21 C          60.4750   87.0774    8.2822 C.3     1  UNL1        0.0000
     22 C          62.4685   91.7900    2.9262 C.3     1  UNL1        0.0878
     23 C          63.0797   90.4819    3.3325 C.3     1  UNL1        0.0246
     24 C          63.8858   91.4751    2.5491 C.3     1  UNL1        0.0246
     25 C          61.1136   93.6397   -1.1670 C.2     1  UNL1        0.2278
     26 O          61.1344   92.1447   -1.2876 O.2     1  UNL1       -0.2747
     27 N          60.0327   94.4316   -1.8412 N.am    1  UNL1       -0.2841
     28 H          60.0191   95.4128   -1.7620 H       1  UNL1        0.1548
     29 C          58.9726   93.7284   -2.6360 C.ar    1  UNL1        0.0462
     30 C          59.0142   93.7602   -4.1350 C.ar    1  UNL1        0.0140
     31 C          57.9540   93.0570   -4.9298 C.ar    1  UNL1       -0.0030
     32 C          56.8523   92.3221   -4.2255 C.ar    1  UNL1       -0.0221
     33 C          55.7922   91.6189   -5.0203 C.3     1  UNL1        0.0310
     34 C          56.8107   92.2903   -2.7264 C.ar    1  UNL1       -0.0073
     35 C          57.8708   92.9934   -1.9317 C.ar    1  UNL1       -0.0087
     36 C          57.8293   92.9617   -0.4325 C.3     1  UNL1        0.0323
@<TRIPOS>BOND
     1     1     2    1
     2     2     3    2
     3     2     4   am
     4     4     5    1
     5     5     6    1
     6     6    25    1
     7    25    26    2
     8    25    27   am
     9    27    29    1
    10    29    30   ar
    11    30    31   ar
    12    31    32   ar
    13    32    33    1
    14    32    34   ar
    15    34    35   ar
    16    35    36    1
    17     6     7    1
    18     7     9    1
    19     9    10   ar
    20    10    11   ar
    21    11    12   ar
    22    14    12    1
    23    14    15    1
    24    15    16    1
    25    16    18    1
    26    18    19    1
    27    19    20    1
    28    19    21    1
    29    16    17    1
    30    12    13   ar
    31    13    22    1
    32    22    23    1
    33    23    24    1
    34     7     8    1
    35     8     4    1
    36    35    29   ar
    37    13     9   ar
    38    24    22    1
    39    17    14    1
    40    27    28    1
@<TRIPOS>MOLECULE
*****
 36 40 0 0 0
SMALL
GASTEIGER

@<TRIPOS>ATOM
      1 C          63.4980   81.8537   14.3151 C.3     1  UNL1        0.0948
      2 C          62.8033   82.0452   12.9995 C.2     1  UNL1        0.2262
      3 O          62.2419   80.8617   12.2687 O.2     1  UNL1       -0.2749
      4 N          62.6699   83.4201   12.4149 N.am    1  UNL1       -0.2786
      5 C          62.0048   83.7649   11.1154 C.3     1  UNL1        0.1029
      6 C          62.1021   85.2496   10.9245 C.3     1  UNL1        0.1053
      7 C          62.8273   85.8223   12.1061 C.3     1  UNL1        0.0888
      8 C          63.1782   84.6917   13.0272 C.3     1  UNL1        0.1014
      9 C          63.1457   87.2713   12.3276 C.ar    1  UNL1        0.1447
     10 N          62.7388   88.4092   11.4391 N.ar    1  UNL1       -0.1336
     11 N          63.2685   89.6780   12.0389 N.ar    1  UNL1       -0.1337
     12 C          64.0027   89.3241   13.2981 C.ar    1  UNL1        0.1425
     13 N          63.9269   87.8367   13.4765 N.ar    1  UNL1       -0.3040
     14 C          64.6919   90.2884   14.2175 C.3     1  UNL1        0.0588
     15 C          64.3898   90.8663   15.5683 C.3     1  UNL1        0.0075
     16 C          65.6666   91.6521   15.5177 C.3     1  UNL1        0.0009
     17 C          65.9687   91.0742   14.1668 C.3     1  UNL1        0.0075
     18 C          66.3556   92.6163   16.4370 C.3     1  UNL1        0.0000
     19 C          67.8159   92.9095   16.2588 C.3     1  UNL1        0.0000
     20 C          68.2514   94.2141   15.6602 C.3     1  UNL1        0.0000
     21 C          68.8407   91.8980   16.6793 C.3     1  UNL1        0.0000
     22 C          64.5268   87.0524   14.6057 C.3     1  UNL1        0.0878
     23 C          64.4128   86.4544   15.9766 C.3     1  UNL1        0.0246
     24 C          65.6800   86.2920   15.1906 C.3     1  UNL1        0.0246
     25 C          61.5679   86.0253    9.7571 C.2     1  UNL1        0.2278
     26 O          62.0247   85.6973    8.3665 O.2     1  UNL1       -0.2747
     27 N          60.5769   87.1290    9.9803 N.am    1  UNL1       -0.2841
     28 H          60.2771   87.3443   10.8930 H       1  UNL1        0.1548
     29 C          60.0428   87.9047    8.8128 C.ar    1  UNL1        0.0462
     30 C          59.5336   87.1813    7.6014 C.ar    1  UNL1        0.0140
     31 C          58.9995   87.9570    6.4340 C.ar    1  UNL1       -0.0030
     32 C          58.9745   89.4562    6.4779 C.ar    1  UNL1       -0.0221
     33 C          58.4403   90.2319    5.3104 C.3     1  UNL1        0.0310
     34 C          59.4837   90.1796    7.6892 C.ar    1  UNL1       -0.0073
     35 C          60.0178   89.4039    8.8567 C.ar    1  UNL1       -0.0087
     36 C          60.5270   90.1273   10.0681 C.3     1  UNL1        0.0323
@<TRIPOS>BOND
     1     1     2    1
     2     2     3    2
     3     2     4   am
     4     4     5    1
     5     5     6    1
     6     6    25    1
     7    25    26    2
     8    25    27   am
     9    27    29    1
    10    29    30   ar
    11    30    31   ar
    12    31    32   ar
    13    32    33    1
    14    32    34   ar
    15    34    35   ar
    16    35    36    1
    17     6     7    1
    18     7     9    1
    19     9    10   ar
    20    10    11   ar
    21    11    12   ar
    22    14    12    1
    23    14    15    1
    24    15    16    1
    25    16    18    1
    26    18    19    1
    27    19    20    1
    28    19    21    1
    29    16    17    1
    30    12    13   ar
    31    13    22    1
    32    22    23    1
    33    23    24    1
    34     7     8    1
    35     8     4    1
    36    35    29   ar
    37    13     9   ar
    38    24    22    1
    39    17    14    1
    40    27    28    1
@<TRIPOS>MOLECULE
*****
 36 40 0 0 0
SMALL
GASTEIGER

@<TRIPOS>ATOM
      1 C          66.1486   94.3446    0.7580 C.3     1  UNL1        0.0948
      2 C          65.0593   94.9612   -0.0685 C.2     1  UNL1        0.2262
      3 O          65.4034   95.7289   -1.3103 O.2     1  UNL1       -0.2749
      4 N          63.6259   94.8100    0.3467 N.am    1  UNL1       -0.2786
      5 C          62.4353   95.3677   -0.3753 C.3     1  UNL1        0.1029
      6 C          61.2049   94.9770    0.3887 C.3     1  UNL1        0.1053
      7 C          61.6352   94.1777    1.5828 C.3     1  UNL1        0.0888
      8 C          63.1314   94.0745    1.5569 C.3     1  UNL1        0.1014
      9 C          60.7284   93.5856    2.6207 C.ar    1  UNL1        0.1447
     10 N          59.4206   94.1592    3.0795 N.ar    1  UNL1       -0.1336
     11 N          58.8541   93.2441    4.1244 N.ar    1  UNL1       -0.1337
     12 C          59.8120   92.1049    4.3113 C.ar    1  UNL1        0.1425
     13 N          60.9703   92.3160    3.3820 N.ar    1  UNL1       -0.3040
     14 C          59.6413   90.9564    5.2609 C.3     1  UNL1        0.0588
     15 C          58.4734   90.3117    5.9468 C.3     1  UNL1        0.0075
     16 C          59.4000   89.3320    6.6038 C.3     1  UNL1        0.0009
     17 C          60.5680   89.9767    5.9180 C.3     1  UNL1        0.0075
     18 C          59.2294   88.1835    7.5534 C.3     1  UNL1        0.0000
     19 C          60.1492   88.0396    8.7295 C.3     1  UNL1        0.0000
     20 C          60.4427   89.2243    9.6014 C.3     1  UNL1        0.0000
     21 C          60.7754   86.7109    9.0337 C.3     1  UNL1        0.0000
     22 C          62.1615   91.4156    3.2391 C.3     1  UNL1        0.0878
     23 C          62.7396   90.0629    2.9460 C.3     1  UNL1        0.0246
     24 C          63.6465   91.2086    3.2847 C.3     1  UNL1        0.0246
     25 C          59.7924   95.3245    0.0227 C.2     1  UNL1        0.2278
     26 O          59.0871   96.4421    0.7323 O.2     1  UNL1       -0.2747
     27 N          59.0851   94.5543   -1.0528 N.am    1  UNL1       -0.2841
     28 H          59.5480   93.8208   -1.5185 H       1  UNL1        0.1548
     29 C          57.6725   94.9018   -1.4187 C.ar    1  UNL1        0.0462
     30 C          57.3114   96.3186   -1.7536 C.ar    1  UNL1        0.0140
     31 C          55.8989   96.6661   -2.1195 C.ar    1  UNL1       -0.0030
     32 C          54.8474   95.5968   -2.1505 C.ar    1  UNL1       -0.0221
     33 C          53.4348   95.9443   -2.5164 C.3     1  UNL1        0.0310
     34 C          55.2085   94.1800   -1.8156 C.ar    1  UNL1       -0.0073
     35 C          56.6211   93.8325   -1.4497 C.ar    1  UNL1       -0.0087
     36 C          56.9822   92.4156   -1.1147 C.3     1  UNL1        0.0323
@<TRIPOS>BOND
     1     1     2    1
     2     2     3    2
     3     2     4   am
     4     4     5    1
     5     5     6    1
     6     6    25    1
     7    25    26    2
     8    25    27   am
     9    27    29    1
    10    29    30   ar
    11    30    31   ar
    12    31    32   ar
    13    32    33    1
    14    32    34   ar
    15    34    35   ar
    16    35    36    1
    17     6     7    1
    18     7     9    1
    19     9    10   ar
    20    10    11   ar
    21    11    12   ar
    22    14    12    1
    23    14    15    1
    24    15    16    1
    25    16    18    1
    26    18    19    1
    27    19    20    1
    28    19    21    1
    29    16    17    1
    30    12    13   ar
    31    13    22    1
    32    22    23    1
    33    23    24    1
    34     7     8    1
    35     8     4    1
    36    35    29   ar
    37    13     9   ar
    38    24    22    1
    39    17    14    1
    40    27    28    1
