@<TRIPOS>MOLECULE
*****
 30 33 0 0 0
SMALL
GASTEIGER

@<TRIPOS>ATOM
      1 C          63.3425   89.9494   12.0673 C.ar    1  UNL1        0.0686
      2 C          63.4641   90.9353   10.9433 C.ar    1  UNL1        0.1045
      3 N          64.3800   92.1157   11.0769 N.ar    1  UNL1       -0.2290
      4 C          65.1743   92.3102   12.3345 C.ar    1  UNL1        0.1319
      5 C          65.0526   91.3243   13.4584 C.ar    1  UNL1        0.0303
      6 C          64.1367   90.1438   13.3248 C.ar    1  UNL1       -0.0138
      7 O          60.9400   88.9649   11.9735 O.2     1  UNL1       -0.2701
      8 C          62.4266   88.7690   11.9337 C.2     1  UNL1        0.2471
      9 N          62.9974   87.3927   11.7602 N.am    1  UNL1       -0.3008
     10 H          63.9731   87.2641   11.7341 H       1  UNL1        0.1497
     11 C          62.0815   86.2123   11.6267 C.3     1  UNL1        0.0898
     12 C          62.5532   84.8473   12.0320 C.3     1  UNL1        0.0246
     13 C          62.7070   84.5077   13.4849 C.3     1  UNL1        0.0338
     14 C          63.1788   83.1427   13.8901 C.3     1  UNL1        0.1422
     15 O          63.4967   82.1174   12.8425 O.3     1  UNL1       -0.3538
     16 C          63.3429   82.4570   11.3896 C.3     1  UNL1        0.1422
     17 C          62.8712   83.8219   10.9843 C.3     1  UNL1        0.0338
     18 C          64.0151   89.1579   14.4487 C.3     1  UNL1        0.0226
     19 C          63.5509   88.8180   15.8339 C.3     1  UNL1        0.0047
     20 C          64.2685   87.7903   15.0100 C.3     1  UNL1        0.0047
     21 N          66.0901   93.4905   12.4681 N.pl3   1  UNL1       -0.2973
     22 H          66.4818   93.7130   13.3435 H       1  UNL1        0.1536
     23 C          66.4092   94.3319   11.2680 C.ar    1  UNL1        0.0601
     24 C          65.8950   95.7382   11.1798 C.ar    1  UNL1        0.0164
     25 C          66.2140   96.5796    9.9796 C.ar    1  UNL1        0.0127
     26 C          67.0473   96.0146    8.8677 C.ar    1  UNL1        0.0586
     27 CL         67.3664   96.8560    7.6676 Cl      1  UNL1       -0.0822
     28 C          67.5616   94.6083    8.9559 C.ar    1  UNL1        0.0240
     29 C          67.2425   93.7670   10.1560 C.ar    1  UNL1        0.0719
     30 CL         67.7568   92.3606   10.2442 Cl      1  UNL1       -0.0809
@<TRIPOS>BOND
     1     7     8    2
     2     8     9   am
     3     9    11    1
     4    11    12    1
     5    12    13    1
     6    13    14    1
     7    14    15    1
     8    15    16    1
     9    16    17    1
    10     8     1    1
    11     1     2   ar
    12     2     3   ar
    13     3     4   ar
    14     4    21    1
    15    21    23    1
    16    23    24   ar
    17    24    25   ar
    18    25    26   ar
    19    26    27    1
    20    26    28   ar
    21    28    29   ar
    22    29    30    1
    23     4     5   ar
    24     5     6   ar
    25     6    18    1
    26    18    19    1
    27    19    20    1
    28    17    12    1
    29     6     1   ar
    30    20    18    1
    31    29    23   ar
    32     9    10    1
    33    21    22    1
@<TRIPOS>MOLECULE
*****
 30 33 0 0 0
SMALL
GASTEIGER

@<TRIPOS>ATOM
      1 C          64.7159   90.9758   13.6510 C.ar    1  UNL1        0.0686
      2 C          65.7085   91.6856   14.5233 C.ar    1  UNL1        0.1045
      3 N          66.4463   92.8821   13.9999 N.ar    1  UNL1       -0.2290
      4 C          66.1914   93.3689   12.6041 C.ar    1  UNL1        0.1319
      5 C          65.1988   92.6592   11.7318 C.ar    1  UNL1        0.0303
      6 C          64.4610   91.4626   12.2553 C.ar    1  UNL1       -0.0138
      7 O          62.5190   89.8840   14.5064 O.2     1  UNL1       -0.2701
      8 C          63.9781   89.7793   14.1744 C.2     1  UNL1        0.2471
      9 N          64.6994   88.4781   14.3659 N.am    1  UNL1       -0.3008
     10 H          65.6570   88.4094   14.1480 H       1  UNL1        0.1497
     11 C          63.9616   87.2816   14.8893 C.3     1  UNL1        0.0898
     12 C          63.9005   86.0230   14.0755 C.3     1  UNL1        0.0246
     13 C          63.1142   85.9930   12.7985 C.3     1  UNL1        0.0338
     14 C          63.0532   84.7344   11.9847 C.3     1  UNL1        0.1422
     15 O          63.7784   83.5058   12.4480 O.3     1  UNL1       -0.3538
     16 C          64.5648   83.5358   13.7250 C.3     1  UNL1        0.1422
     17 C          64.6258   84.7944   14.5387 C.3     1  UNL1        0.0338
     18 C          63.4683   90.7528   11.3830 C.3     1  UNL1        0.0226
     19 C          62.7800   89.4887   10.9612 C.3     1  UNL1        0.0047
     20 C          62.4374   90.7877   10.2940 C.3     1  UNL1        0.0047
     21 N          66.9292   94.5654   12.0807 N.pl3   1  UNL1       -0.2973
     22 H          67.6459   94.9753   12.6171 H       1  UNL1        0.1536
     23 C          66.5751   95.1375   10.7401 C.ar    1  UNL1        0.0601
     24 C          65.5653   96.2421   10.6390 C.ar    1  UNL1        0.0164
     25 C          65.2112   96.8142    9.2984 C.ar    1  UNL1        0.0127
     26 C          65.8669   96.2818    8.0588 C.ar    1  UNL1        0.0586
     27 CL         65.5128   96.8539    6.7182 Cl      1  UNL1       -0.0822
     28 C          66.8767   95.1772    8.1599 C.ar    1  UNL1        0.0240
     29 C          67.2308   94.6051    9.5005 C.ar    1  UNL1        0.0719
     30 CL         68.2406   93.5005    9.6016 Cl      1  UNL1       -0.0809
@<TRIPOS>BOND
     1     7     8    2
     2     8     9   am
     3     9    11    1
     4    11    12    1
     5    12    13    1
     6    13    14    1
     7    14    15    1
     8    15    16    1
     9    16    17    1
    10     8     1    1
    11     1     2   ar
    12     2     3   ar
    13     3     4   ar
    14     4    21    1
    15    21    23    1
    16    23    24   ar
    17    24    25   ar
    18    25    26   ar
    19    26    27    1
    20    26    28   ar
    21    28    29   ar
    22    29    30    1
    23     4     5   ar
    24     5     6   ar
    25     6    18    1
    26    18    19    1
    27    19    20    1
    28    17    12    1
    29     6     1   ar
    30    20    18    1
    31    29    23   ar
    32     9    10    1
    33    21    22    1
@<TRIPOS>MOLECULE
*****
 30 33 0 0 0
SMALL
GASTEIGER

@<TRIPOS>ATOM
      1 C          63.3059   90.4566   11.6792 C.ar    1  UNL1        0.0686
      2 C          62.5351   90.7114   10.4178 C.ar    1  UNL1        0.1045
      3 N          61.6110   89.6603    9.8782 N.ar    1  UNL1       -0.2290
      4 C          61.4577   88.3542   10.6000 C.ar    1  UNL1        0.1319
      5 C          62.2285   88.0994   11.8613 C.ar    1  UNL1        0.0303
      6 C          63.1526   89.1506   12.4009 C.ar    1  UNL1       -0.0138
      7 O          64.0220   92.0510   13.6013 O.2     1  UNL1       -0.2701
      8 C          64.2299   91.5077   12.2187 C.2     1  UNL1        0.2471
      9 N          65.3620   92.0156   11.3757 N.am    1  UNL1       -0.3008
     10 H          65.4985   91.6589   10.4683 H       1  UNL1        0.1497
     11 C          66.2861   93.0667   11.9153 C.3     1  UNL1        0.0898
     12 C          66.6016   94.2814   11.0937 C.3     1  UNL1        0.0246
     13 C          66.1649   95.6378   11.5621 C.3     1  UNL1        0.0338
     14 C          66.4804   96.8524   10.7404 C.3     1  UNL1        0.1422
     15 O          67.2326   96.7106    9.4504 O.3     1  UNL1       -0.3538
     16 C          67.6693   95.3542    8.9821 C.3     1  UNL1        0.1422
     17 C          67.3537   94.1396    9.8037 C.3     1  UNL1        0.0338
     18 C          63.9234   88.8958   13.6622 C.3     1  UNL1        0.0226
     19 C          64.5539   89.4047   14.9245 C.3     1  UNL1        0.0047
     20 C          64.6279   87.9456   14.5846 C.3     1  UNL1        0.0047
     21 N          60.5337   87.3031   10.0604 N.pl3   1  UNL1       -0.2973
     22 H          59.6492   87.1675   10.4709 H       1  UNL1        0.1536
     23 C          60.9572   86.4585    8.8954 C.ar    1  UNL1        0.0601
     24 C          62.3425   85.8852    8.8489 C.ar    1  UNL1        0.0164
     25 C          62.7660   85.0407    7.6839 C.ar    1  UNL1        0.0127
     26 C          61.8043   84.7694    6.5652 C.ar    1  UNL1        0.0586
     27 CL         62.2278   83.9249    5.4002 Cl      1  UNL1       -0.0822
     28 C          60.4190   85.3428    6.6117 C.ar    1  UNL1        0.0240
     29 C          59.9954   86.1873    7.7767 C.ar    1  UNL1        0.0719
     30 CL         58.6101   86.7607    7.8231 Cl      1  UNL1       -0.0809
@<TRIPOS>BOND
     1     7     8    2
     2     8     9   am
     3     9    11    1
     4    11    12    1
     5    12    13    1
     6    13    14    1
     7    14    15    1
     8    15    16    1
     9    16    17    1
    10     8     1    1
    11     1     2   ar
    12     2     3   ar
    13     3     4   ar
    14     4    21    1
    15    21    23    1
    16    23    24   ar
    17    24    25   ar
    18    25    26   ar
    19    26    27    1
    20    26    28   ar
    21    28    29   ar
    22    29    30    1
    23     4     5   ar
    24     5     6   ar
    25     6    18    1
    26    18    19    1
    27    19    20    1
    28    17    12    1
    29     6     1   ar
    30    20    18    1
    31    29    23   ar
    32     9    10    1
    33    21    22    1
@<TRIPOS>MOLECULE
*****
 30 33 0 0 0
SMALL
GASTEIGER

@<TRIPOS>ATOM
      1 C          63.7208   86.7104   13.8116 C.ar    1  UNL1        0.0686
      2 C          64.4578   87.4423   14.8938 C.ar    1  UNL1        0.1045
      3 N          64.6587   88.9254   14.7935 N.ar    1  UNL1       -0.2290
      4 C          64.1225   89.6766   13.6110 C.ar    1  UNL1        0.1319
      5 C          63.3855   88.9447   12.5288 C.ar    1  UNL1        0.0303
      6 C          63.1846   87.4616   12.6291 C.ar    1  UNL1       -0.0138
      7 O          62.1333   84.6628   14.0046 O.2     1  UNL1       -0.2701
      8 C          63.5199   85.2273   13.9118 C.2     1  UNL1        0.2471
      9 N          64.7057   84.3086   13.9193 N.am    1  UNL1       -0.3008
     10 H          65.6158   84.6791   13.8584 H       1  UNL1        0.1497
     11 C          64.5049   82.8256   14.0195 C.3     1  UNL1        0.0898
     12 C          63.9820   82.0582   12.8415 C.3     1  UNL1        0.0246
     13 C          63.1708   80.8149   13.0564 C.3     1  UNL1        0.0338
     14 C          62.6479   80.0476   11.8784 C.3     1  UNL1        0.1422
     15 O          62.9363   80.5235   10.4854 O.3     1  UNL1       -0.3538
     16 C          63.7475   81.7668   10.2705 C.3     1  UNL1        0.1422
     17 C          64.2703   82.5341   11.4485 C.3     1  UNL1        0.0338
     18 C          62.4476   86.7297   11.5469 C.3     1  UNL1        0.0226
     19 C          61.2048   86.5222   10.7331 C.3     1  UNL1        0.0047
     20 C          62.4139   85.6695   10.4864 C.3     1  UNL1        0.0047
     21 N          64.3234   91.1597   13.5108 N.pl3   1  UNL1       -0.2973
     22 H          63.6573   91.7164   13.0463 H       1  UNL1        0.1536
     23 C          65.5390   91.7947   14.1182 C.ar    1  UNL1        0.0601
     24 C          66.7581   92.0360   13.2783 C.ar    1  UNL1        0.0164
     25 C          67.9738   92.6709   13.8858 C.ar    1  UNL1        0.0127
     26 C          67.9703   93.0646   15.3332 C.ar    1  UNL1        0.0586
     27 CL         69.1860   93.6996   15.9406 Cl      1  UNL1       -0.0822
     28 C          66.7512   92.8233   16.1731 C.ar    1  UNL1        0.0240
     29 C          65.5356   92.1884   15.5656 C.ar    1  UNL1        0.0719
     30 CL         64.3164   91.9471   16.4056 Cl      1  UNL1       -0.0809
@<TRIPOS>BOND
     1     7     8    2
     2     8     9   am
     3     9    11    1
     4    11    12    1
     5    12    13    1
     6    13    14    1
     7    14    15    1
     8    15    16    1
     9    16    17    1
    10     8     1    1
    11     1     2   ar
    12     2     3   ar
    13     3     4   ar
    14     4    21    1
    15    21    23    1
    16    23    24   ar
    17    24    25   ar
    18    25    26   ar
    19    26    27    1
    20    26    28   ar
    21    28    29   ar
    22    29    30    1
    23     4     5   ar
    24     5     6   ar
    25     6    18    1
    26    18    19    1
    27    19    20    1
    28    17    12    1
    29     6     1   ar
    30    20    18    1
    31    29    23   ar
    32     9    10    1
    33    21    22    1
@<TRIPOS>MOLECULE
*****
 30 33 0 0 0
SMALL
GASTEIGER

@<TRIPOS>ATOM
      1 C          62.9946   87.8986   12.1519 C.ar    1  UNL1        0.0686
      2 C          62.6874   89.0521   11.2436 C.ar    1  UNL1        0.1045
      3 N          63.1919   90.4247   11.5774 N.ar    1  UNL1       -0.2290
      4 C          64.0037   90.6438   12.8197 C.ar    1  UNL1        0.1319
      5 C          64.3108   89.4903   13.7281 C.ar    1  UNL1        0.0303
      6 C          63.8062   88.1177   13.3941 C.ar    1  UNL1       -0.0138
      7 O          61.0152   86.2531   11.7993 O.2     1  UNL1       -0.2701
      8 C          62.4900   86.5261   11.8181 C.2     1  UNL1        0.2471
      9 N          63.4603   85.4264   11.5029 N.am    1  UNL1       -0.3008
     10 H          64.4283   85.6055   11.5152 H       1  UNL1        0.1497
     11 C          62.9558   84.0538   11.1691 C.3     1  UNL1        0.0898
     12 C          62.7826   83.0337   12.2551 C.3     1  UNL1        0.0246
     13 C          62.4890   83.4746   13.6584 C.3     1  UNL1        0.0338
     14 C          62.3158   82.4545   14.7443 C.3     1  UNL1        0.1422
     15 O          62.4362   80.9934   14.4269 O.3     1  UNL1       -0.3538
     16 C          62.7298   80.5525   13.0236 C.3     1  UNL1        0.1422
     17 C          62.9029   81.5726   11.9377 C.3     1  UNL1        0.0338
     18 C          64.1134   86.9642   14.3025 C.3     1  UNL1        0.0226
     19 C          63.8119   86.1663   15.5363 C.3     1  UNL1        0.0047
     20 C          64.9469   85.7642   14.6419 C.3     1  UNL1        0.0047
     21 N          64.5082   92.0163   13.1536 N.pl3   1  UNL1       -0.2973
     22 H          64.0170   92.8106   12.8420 H       1  UNL1        0.1536
     23 C          65.7611   92.1787   13.9621 C.ar    1  UNL1        0.0601
     24 C          65.6791   92.3110   15.4540 C.ar    1  UNL1        0.0164
     25 C          66.9321   92.4734   16.2626 C.ar    1  UNL1        0.0127
     26 C          68.2670   92.5035   15.5793 C.ar    1  UNL1        0.0586
     27 CL         69.5199   92.6659   16.3879 Cl      1  UNL1       -0.0822
     28 C          68.3490   92.3712   14.0874 C.ar    1  UNL1        0.0240
     29 C          67.0961   92.2088   13.2788 C.ar    1  UNL1        0.0719
     30 CL         67.1782   92.0765   11.7869 Cl      1  UNL1       -0.0809
@<TRIPOS>BOND
     1     7     8    2
     2     8     9   am
     3     9    11    1
     4    11    12    1
     5    12    13    1
     6    13    14    1
     7    14    15    1
     8    15    16    1
     9    16    17    1
    10     8     1    1
    11     1     2   ar
    12     2     3   ar
    13     3     4   ar
    14     4    21    1
    15    21    23    1
    16    23    24   ar
    17    24    25   ar
    18    25    26   ar
    19    26    27    1
    20    26    28   ar
    21    28    29   ar
    22    29    30    1
    23     4     5   ar
    24     5     6   ar
    25     6    18    1
    26    18    19    1
    27    19    20    1
    28    17    12    1
    29     6     1   ar
    30    20    18    1
    31    29    23   ar
    32     9    10    1
    33    21    22    1
@<TRIPOS>MOLECULE
*****
 30 33 0 0 0
SMALL
GASTEIGER

@<TRIPOS>ATOM
      1 C          63.2382   90.4452   11.6748 C.ar    1  UNL1        0.0686
      2 C          62.4486   90.6712   10.4196 C.ar    1  UNL1        0.1045
      3 N          61.5615   89.5857    9.8859 N.ar    1  UNL1       -0.2290
      4 C          61.4641   88.2741   10.6074 C.ar    1  UNL1        0.1319
      5 C          62.2537   88.0481   11.8625 C.ar    1  UNL1        0.0303
      6 C          63.1408   89.1337   12.3962 C.ar    1  UNL1       -0.0138
      7 O          64.0018   91.9644   13.6391 O.2     1  UNL1       -0.2701
      8 C          64.1252   91.5306   12.2085 C.2     1  UNL1        0.2471
      9 N          65.1357   92.1823   11.3117 N.am    1  UNL1       -0.3008
     10 H          65.2166   91.8976   10.3727 H       1  UNL1        0.1497
     11 C          66.0227   93.2678   11.8454 C.3     1  UNL1        0.0898
     12 C          66.8586   93.0209   13.0662 C.3     1  UNL1        0.0246
     13 C          66.6876   93.8856   14.2798 C.3     1  UNL1        0.0338
     14 C          67.5235   93.6386   15.5005 C.3     1  UNL1        0.1422
     15 O          68.5305   92.5269   15.5076 O.3     1  UNL1       -0.3538
     16 C          68.7015   91.6622   14.2940 C.3     1  UNL1        0.1422
     17 C          67.8656   91.9091   13.0733 C.3     1  UNL1        0.0338
     18 C          63.9304   88.9077   13.6514 C.3     1  UNL1        0.0226
     19 C          64.7202   89.4515   14.8048 C.3     1  UNL1        0.0047
     20 C          64.5082   87.9725   14.6719 C.3     1  UNL1        0.0047
     21 N          60.5771   87.1887   10.0736 N.pl3   1  UNL1       -0.2973
     22 H          59.7068   87.0108   10.4982 H       1  UNL1        0.1536
     23 C          61.0159   86.3742    8.8930 C.ar    1  UNL1        0.0601
     24 C          62.4126   85.8304    8.8344 C.ar    1  UNL1        0.0164
     25 C          62.8515   85.0159    7.6537 C.ar    1  UNL1        0.0127
     26 C          61.8936   84.7452    6.5316 C.ar    1  UNL1        0.0586
     27 CL         62.3325   83.9306    5.3509 Cl      1  UNL1       -0.0822
     28 C          60.4969   85.2890    6.5902 C.ar    1  UNL1        0.0240
     29 C          60.0581   86.1035    7.7708 C.ar    1  UNL1        0.0719
     30 CL         58.6613   86.6473    7.8293 Cl      1  UNL1       -0.0809
@<TRIPOS>BOND
     1     7     8    2
     2     8     9   am
     3     9    11    1
     4    11    12    1
     5    12    13    1
     6    13    14    1
     7    14    15    1
     8    15    16    1
     9    16    17    1
    10     8     1    1
    11     1     2   ar
    12     2     3   ar
    13     3     4   ar
    14     4    21    1
    15    21    23    1
    16    23    24   ar
    17    24    25   ar
    18    25    26   ar
    19    26    27    1
    20    26    28   ar
    21    28    29   ar
    22    29    30    1
    23     4     5   ar
    24     5     6   ar
    25     6    18    1
    26    18    19    1
    27    19    20    1
    28    17    12    1
    29     6     1   ar
    30    20    18    1
    31    29    23   ar
    32     9    10    1
    33    21    22    1
@<TRIPOS>MOLECULE
*****
 30 33 0 0 0
SMALL
GASTEIGER

@<TRIPOS>ATOM
      1 C          63.7849   86.7382   13.9342 C.ar    1  UNL1        0.0686
      2 C          64.2580   87.7288   14.9564 C.ar    1  UNL1        0.1045
      3 N          64.1653   89.1992   14.6749 N.ar    1  UNL1       -0.2290
      4 C          63.5996   89.6791   13.3711 C.ar    1  UNL1        0.1319
      5 C          63.1265   88.6885   12.3489 C.ar    1  UNL1        0.0303
      6 C          63.2192   87.2180   12.6305 C.ar    1  UNL1       -0.0138
      7 O          65.2082   84.5771   14.1665 O.2     1  UNL1       -0.2701
      8 C          63.8775   85.2678   14.2157 C.2     1  UNL1        0.2471
      9 N          62.6395   84.4880   14.5465 N.am    1  UNL1       -0.3008
     10 H          61.7662   84.9413   14.5788 H       1  UNL1        0.1497
     11 C          62.7322   83.0176   14.8280 C.3     1  UNL1        0.0898
     12 C          62.7425   82.0360   13.6938 C.3     1  UNL1        0.0246
     13 C          62.3728   80.6031   13.9386 C.3     1  UNL1        0.0338
     14 C          62.3831   79.6216   12.8044 C.3     1  UNL1        0.1422
     15 O          62.7633   80.0729   11.4254 O.3     1  UNL1       -0.3538
     16 C          63.1330   81.5058   11.1805 C.3     1  UNL1        0.1422
     17 C          63.1227   82.4874   12.3147 C.3     1  UNL1        0.0338
     18 C          62.7461   86.2274   11.6083 C.3     1  UNL1        0.0226
     19 C          63.0457   85.1611   10.5968 C.3     1  UNL1        0.0047
     20 C          61.6271   85.5779   10.8494 C.3     1  UNL1        0.0047
     21 N          63.5069   91.1495   13.0896 N.pl3   1  UNL1       -0.2973
     22 H          62.7314   91.6642   13.4103 H       1  UNL1        0.1536
     23 C          64.5959   91.8357   12.3194 C.ar    1  UNL1        0.0601
     24 C          65.8085   92.3535   13.0346 C.ar    1  UNL1        0.0164
     25 C          66.8975   93.0398   12.2644 C.ar    1  UNL1        0.0127
     26 C          66.7739   93.2083   10.7790 C.ar    1  UNL1        0.0586
     27 CL         67.8628   93.8945   10.0089 Cl      1  UNL1       -0.0822
     28 C          65.5613   92.6905   10.0639 C.ar    1  UNL1        0.0240
     29 C          64.4723   92.0042   10.8341 C.ar    1  UNL1        0.0719
     30 CL         63.2597   91.4864   10.1188 Cl      1  UNL1       -0.0809
@<TRIPOS>BOND
     1     7     8    2
     2     8     9   am
     3     9    11    1
     4    11    12    1
     5    12    13    1
     6    13    14    1
     7    14    15    1
     8    15    16    1
     9    16    17    1
    10     8     1    1
    11     1     2   ar
    12     2     3   ar
    13     3     4   ar
    14     4    21    1
    15    21    23    1
    16    23    24   ar
    17    24    25   ar
    18    25    26   ar
    19    26    27    1
    20    26    28   ar
    21    28    29   ar
    22    29    30    1
    23     4     5   ar
    24     5     6   ar
    25     6    18    1
    26    18    19    1
    27    19    20    1
    28    17    12    1
    29     6     1   ar
    30    20    18    1
    31    29    23   ar
    32     9    10    1
    33    21    22    1
@<TRIPOS>MOLECULE
*****
 30 33 0 0 0
SMALL
GASTEIGER

@<TRIPOS>ATOM
      1 C          63.5667   90.4993   11.2740 C.ar    1  UNL1        0.0686
      2 C          62.9212   89.9797   10.0237 C.ar    1  UNL1        0.1045
      3 N          62.2408   88.6429   10.0307 N.ar    1  UNL1       -0.2290
      4 C          62.2060   87.8257   11.2881 C.ar    1  UNL1        0.1319
      5 C          62.8515   88.3453   12.5384 C.ar    1  UNL1        0.0303
      6 C          63.5318   89.6821   12.5314 C.ar    1  UNL1       -0.0138
      7 O          63.8860   92.8559   10.2280 O.2     1  UNL1       -0.2701
      8 C          64.2470   91.8361   11.2670 C.2     1  UNL1        0.2471
      9 N          65.2883   92.1531   12.2991 N.am    1  UNL1       -0.3008
     10 H          65.5252   91.4838   12.9811 H       1  UNL1        0.1497
     11 C          65.9687   93.4899   12.2921 C.3     1  UNL1        0.0898
     12 C          66.6212   93.9929   11.0386 C.3     1  UNL1        0.0246
     13 C          66.4955   95.4376   10.6553 C.3     1  UNL1        0.0338
     14 C          67.1480   95.9405    9.4018 C.3     1  UNL1        0.1422
     15 O          67.9262   94.9986    8.5316 O.3     1  UNL1       -0.3538
     16 C          68.0519   93.5539    8.9148 C.3     1  UNL1        0.1422
     17 C          67.3994   93.0510   10.1683 C.3     1  UNL1        0.0338
     18 C          64.1773   90.2017   13.7817 C.3     1  UNL1        0.0226
     19 C          64.0607   90.8195   15.1436 C.3     1  UNL1        0.0047
     20 C          65.4120   90.4839   14.5854 C.3     1  UNL1        0.0047
     21 N          61.5257   86.4889   11.2951 N.pl3   1  UNL1       -0.2973
     22 H          60.5570   86.4287   11.1301 H       1  UNL1        0.1536
     23 C          62.3213   85.2438   11.5534 C.ar    1  UNL1        0.0601
     24 C          62.3927   84.6733   12.9388 C.ar    1  UNL1        0.0164
     25 C          63.1883   83.4282   13.1972 C.ar    1  UNL1        0.0127
     26 C          63.9125   82.7535   12.0701 C.ar    1  UNL1        0.0586
     27 CL         64.7081   81.5084   12.3284 Cl      1  UNL1       -0.0822
     28 C          63.8410   83.3240   10.6847 C.ar    1  UNL1        0.0240
     29 C          63.0454   84.5691   10.4263 C.ar    1  UNL1        0.0719
     30 CL         62.9740   85.1395    9.0408 Cl      1  UNL1       -0.0809
@<TRIPOS>BOND
     1     7     8    2
     2     8     9   am
     3     9    11    1
     4    11    12    1
     5    12    13    1
     6    13    14    1
     7    14    15    1
     8    15    16    1
     9    16    17    1
    10     8     1    1
    11     1     2   ar
    12     2     3   ar
    13     3     4   ar
    14     4    21    1
    15    21    23    1
    16    23    24   ar
    17    24    25   ar
    18    25    26   ar
    19    26    27    1
    20    26    28   ar
    21    28    29   ar
    22    29    30    1
    23     4     5   ar
    24     5     6   ar
    25     6    18    1
    26    18    19    1
    27    19    20    1
    28    17    12    1
    29     6     1   ar
    30    20    18    1
    31    29    23   ar
    32     9    10    1
    33    21    22    1
@<TRIPOS>MOLECULE
*****
 30 33 0 0 0
SMALL
GASTEIGER

@<TRIPOS>ATOM
      1 C          62.8630   86.6749   11.5941 C.ar    1  UNL1        0.0686
      2 C          62.4057   87.6907   10.5896 C.ar    1  UNL1        0.1045
      3 N          62.5273   89.1543   10.8945 N.ar    1  UNL1       -0.2290
      4 C          63.1062   89.6022   12.2038 C.ar    1  UNL1        0.1319
      5 C          63.5636   88.5864   13.2082 C.ar    1  UNL1        0.0303
      6 C          63.4420   87.1227   12.9034 C.ar    1  UNL1       -0.0138
      7 O          61.4608   84.4877   11.5835 O.2     1  UNL1       -0.2701
      8 C          62.7414   85.2113   11.2893 C.2     1  UNL1        0.2471
      9 N          63.9005   84.4711   10.6903 N.am    1  UNL1       -0.3008
     10 H          64.7410   84.9459   10.4972 H       1  UNL1        0.1497
     11 C          63.7789   83.0074   10.3855 C.3     1  UNL1        0.0898
     12 C          63.5580   82.0255   11.4977 C.3     1  UNL1        0.0246
     13 C          62.7220   80.8024   11.2634 C.3     1  UNL1        0.0338
     14 C          62.5012   79.8205   12.3756 C.3     1  UNL1        0.1422
     15 O          63.1163   80.0618   13.7222 O.3     1  UNL1       -0.3538
     16 C          63.9523   81.2849   13.9566 C.3     1  UNL1        0.1422
     17 C          64.1732   82.2668   12.8444 C.3     1  UNL1        0.0338
     18 C          63.8993   86.1069   13.9078 C.3     1  UNL1        0.0226
     19 C          63.6023   85.1968   15.0626 C.3     1  UNL1        0.0047
     20 C          64.9885   85.2576   14.4928 C.3     1  UNL1        0.0047
     21 N          63.2278   91.0659   12.5086 N.pl3   1  UNL1       -0.2973
     22 H          62.4840   91.6758   12.2990 H       1  UNL1        0.1536
     23 C          64.4828   91.6003   13.1328 C.ar    1  UNL1        0.0601
     24 C          64.7691   91.3403   14.5820 C.ar    1  UNL1        0.0164
     25 C          66.0241   91.8747   15.2062 C.ar    1  UNL1        0.0127
     26 C          66.9926   92.6691   14.3811 C.ar    1  UNL1        0.0586
     27 CL         68.2475   93.2035   15.0052 Cl      1  UNL1       -0.0822
     28 C          66.7062   92.9290   12.9318 C.ar    1  UNL1        0.0240
     29 C          65.4513   92.3946   12.3077 C.ar    1  UNL1        0.0719
     30 CL         65.1650   92.6547   10.8583 Cl      1  UNL1       -0.0809
@<TRIPOS>BOND
     1     7     8    2
     2     8     9   am
     3     9    11    1
     4    11    12    1
     5    12    13    1
     6    13    14    1
     7    14    15    1
     8    15    16    1
     9    16    17    1
    10     8     1    1
    11     1     2   ar
    12     2     3   ar
    13     3     4   ar
    14     4    21    1
    15    21    23    1
    16    23    24   ar
    17    24    25   ar
    18    25    26   ar
    19    26    27    1
    20    26    28   ar
    21    28    29   ar
    22    29    30    1
    23     4     5   ar
    24     5     6   ar
    25     6    18    1
    26    18    19    1
    27    19    20    1
    28    17    12    1
    29     6     1   ar
    30    20    18    1
    31    29    23   ar
    32     9    10    1
    33    21    22    1
