@<TRIPOS>MOLECULE
*****
 31 34 0 0 0
SMALL
GASTEIGER

@<TRIPOS>ATOM
      1 O          63.4433   84.8864   16.8129 O.2     1  UNL1       -0.2651
      2 C          63.4365   85.4461   15.4213 C.ar    1  UNL1        0.2814
      3 N          63.8046   86.8814   15.1883 N.ar    1  UNL1       -0.1866
      4 C          63.7978   87.4411   13.7967 C.ar    1  UNL1        0.1665
      5 S          63.4229   86.5654   12.6380 S.2     1  UNL1       -0.0466
      6 C          63.0548   85.1301   12.8709 C.ar    1  UNL1        0.1059
      7 C          62.6799   84.2544   11.7121 C.ar    1  UNL1        0.2960
      8 C          62.3117   82.8191   11.9451 C.ar    1  UNL1        0.0797
      9 C          62.3185   82.2594   13.3367 C.ar    1  UNL1        0.0777
     10 C          62.6934   83.1350   14.4955 C.ar    1  UNL1        0.0096
     11 C          63.0616   84.5704   14.2626 C.ar    1  UNL1        0.0699
     12 N          64.1660   88.8765   13.5638 N.pl3   1  UNL1       -0.2852
     13 C          63.5749   89.6238   12.4053 C.3     1  UNL1        0.1100
     14 C          63.9430   91.0592   12.1723 C.3     1  UNL1        0.0939
     15 N          64.9022   91.7472   13.0979 N.3     1  UNL1       -0.2698
     16 C          65.4933   90.9998   14.2564 C.3     1  UNL1        0.0939
     17 C          65.1251   89.5644   14.4893 C.3     1  UNL1        0.1100
     18 C          65.2703   93.1825   12.8650 C.3     1  UNL1        0.0721
     19 C          66.1088   93.5589   11.6795 C.3     1  UNL1        0.0160
     20 C          66.9101   92.5116   10.9648 C.3     1  UNL1        0.0014
     21 C          67.7486   92.8880    9.7793 C.3     1  UNL1        0.0000
     22 C          67.7857   94.3117    9.3086 C.3     1  UNL1        0.0000
     23 C          66.9843   95.3590   10.0233 C.3     1  UNL1        0.0000
     24 C          66.1459   94.9826   11.2088 C.3     1  UNL1        0.0014
     25 C          61.9504   80.8240   13.5696 C.3     1  UNL1        0.4188
     26 F          61.5823   79.3887   13.8025 F       1  UNL1       -0.1659
     27 F          63.0625   80.3914   12.6609 F       1  UNL1       -0.1659
     28 F          60.8382   81.2567   14.4784 F       1  UNL1       -0.1659
     29 N          62.6731   84.8141   10.3205 N.pl3   1  UNL1        0.0814
     30 O          63.6685   84.3249    9.3105 O.2     1  UNL1        0.0415
     31 O          61.6710   85.8629    9.9388 O.co2   1  UNL1       -0.5760
@<TRIPOS>UNITY_ATOM_ATTR
29 1
charge 1
31 1
charge -1
@<TRIPOS>BOND
     1     1     2    2
     2     2     3   ar
     3     3     4   ar
     4     4    12    1
     5    12    13    1
     6    13    14    1
     7    14    15    1
     8    15    18    1
     9    18    19    1
    10    19    20    1
    11    20    21    1
    12    21    22    1
    13    22    23    1
    14    23    24    1
    15    15    16    1
    16    16    17    1
    17     4     5   ar
    18     5     6   ar
    19     6     7   ar
    20     7    29    1
    21    29    30    2
    22    29    31    1
    23     7     8   ar
    24     8     9   ar
    25     9    25    1
    26    25    26    1
    27    25    27    1
    28    25    28    1
    29     9    10   ar
    30    10    11   ar
    31    11     2   ar
    32    17    12    1
    33    11     6   ar
    34    24    19    1
@<TRIPOS>MOLECULE
*****
 31 34 0 0 0
SMALL
GASTEIGER

@<TRIPOS>ATOM
      1 O          73.6330   71.4771   12.0010 O.2     1  UNL1       -0.2651
      2 C          72.9327   72.5236   12.8161 C.ar    1  UNL1        0.2814
      3 N          72.9679   73.9593   12.3832 N.ar    1  UNL1       -0.1866
      4 C          72.2676   75.0058   13.1983 C.ar    1  UNL1        0.1665
      5 S          71.5320   74.6166   14.4463 S.2     1  UNL1       -0.0466
      6 C          71.4968   73.1809   14.8791 C.ar    1  UNL1        0.1059
      7 C          70.7612   72.7916   16.1272 C.ar    1  UNL1        0.2960
      8 C          70.7260   71.3559   16.5600 C.ar    1  UNL1        0.0797
      9 C          71.4263   70.3094   15.7450 C.ar    1  UNL1        0.0777
     10 C          72.1619   70.6986   14.4970 C.ar    1  UNL1        0.0096
     11 C          72.1971   72.1344   14.0641 C.ar    1  UNL1        0.0699
     12 N          72.3028   76.4416   12.7654 N.pl3   1  UNL1       -0.2852
     13 C          71.0450   77.1174   12.3059 C.3     1  UNL1        0.1100
     14 C          71.0802   78.5531   11.8730 C.3     1  UNL1        0.0939
     15 N          72.3732   79.3131   11.8995 N.3     1  UNL1       -0.2698
     16 C          73.6311   78.6372   12.3590 C.3     1  UNL1        0.0939
     17 C          73.5958   77.2014   12.7919 C.3     1  UNL1        0.1100
     18 C          72.4084   80.7488   11.4666 C.3     1  UNL1        0.0721
     19 C          72.2382   81.0998   10.0182 C.3     1  UNL1        0.0160
     20 C          72.1745   82.5381    9.5976 C.3     1  UNL1        0.0014
     21 C          72.0043   82.8892    8.1492 C.3     1  UNL1        0.0000
     22 C          71.8977   81.8018    7.1215 C.3     1  UNL1        0.0000
     23 C          71.9613   80.3634    7.5421 C.3     1  UNL1        0.0000
     24 C          72.1316   80.0124    8.9905 C.3     1  UNL1        0.0014
     25 C          71.3911   68.8736   16.1779 C.3     1  UNL1        0.4188
     26 F          71.3558   67.4379   16.6108 F       1  UNL1       -0.1659
     27 F          70.9997   68.4644   14.7889 F       1  UNL1       -0.1659
     28 F          71.7825   69.2827   17.5669 F       1  UNL1       -0.1659
     29 N          70.0609   73.8381   16.9423 N.pl3   1  UNL1        0.0814
     30 O          69.0432   74.7329   16.2991 O.2     1  UNL1        0.0415
     31 O          70.3783   73.9898   18.4004 O.co2   1  UNL1       -0.5760
@<TRIPOS>UNITY_ATOM_ATTR
29 1
charge 1
31 1
charge -1
@<TRIPOS>BOND
     1     1     2    2
     2     2     3   ar
     3     3     4   ar
     4     4    12    1
     5    12    13    1
     6    13    14    1
     7    14    15    1
     8    15    18    1
     9    18    19    1
    10    19    20    1
    11    20    21    1
    12    21    22    1
    13    22    23    1
    14    23    24    1
    15    15    16    1
    16    16    17    1
    17     4     5   ar
    18     5     6   ar
    19     6     7   ar
    20     7    29    1
    21    29    30    2
    22    29    31    1
    23     7     8   ar
    24     8     9   ar
    25     9    25    1
    26    25    26    1
    27    25    27    1
    28    25    28    1
    29     9    10   ar
    30    10    11   ar
    31    11     2   ar
    32    17    12    1
    33    11     6   ar
    34    24    19    1
@<TRIPOS>MOLECULE
*****
 31 34 0 0 0
SMALL
GASTEIGER

@<TRIPOS>ATOM
      1 O          62.7217   84.3777    8.7106 O.2     1  UNL1       -0.2651
      2 C          62.9444   84.5710   10.1813 C.ar    1  UNL1        0.2814
      3 N          63.1108   85.9533   10.7393 N.ar    1  UNL1       -0.1866
      4 C          63.3334   86.1466   12.2101 C.ar    1  UNL1        0.1665
      5 S          63.3897   84.9576   13.1228 S.2     1  UNL1       -0.0466
      6 C          63.2233   83.5753   12.5647 C.ar    1  UNL1        0.1059
      7 C          63.2795   82.3862   13.4774 C.ar    1  UNL1        0.2960
      8 C          63.1131   81.0039   12.9194 C.ar    1  UNL1        0.0797
      9 C          62.8905   80.8106   11.4487 C.ar    1  UNL1        0.0777
     10 C          62.8342   81.9996   10.5360 C.ar    1  UNL1        0.0096
     11 C          63.0006   83.3820   11.0940 C.ar    1  UNL1        0.0699
     12 N          63.4998   87.5290   12.7681 N.pl3   1  UNL1       -0.2852
     13 C          64.1651   87.7259   14.0980 C.3     1  UNL1        0.1100
     14 C          64.3315   89.1082   14.6560 C.3     1  UNL1        0.0939
     15 N          63.8326   90.2938   13.8841 N.3     1  UNL1       -0.2698
     16 C          63.1674   90.0969   12.5542 C.3     1  UNL1        0.0939
     17 C          63.0010   88.7145   11.9962 C.3     1  UNL1        0.1100
     18 C          63.9991   91.6761   14.4422 C.3     1  UNL1        0.0721
     19 C          65.3725   92.2163   14.7103 C.3     1  UNL1        0.0160
     20 C          66.2789   92.5624   13.5664 C.3     1  UNL1        0.0014
     21 C          67.6522   93.1026   13.8346 C.3     1  UNL1        0.0000
     22 C          68.1192   93.2968   15.2467 C.3     1  UNL1        0.0000
     23 C          67.2129   92.9508   16.3907 C.3     1  UNL1        0.0000
     24 C          65.8395   92.4105   16.1225 C.3     1  UNL1        0.0014
     25 C          62.7241   79.4281   10.8906 C.3     1  UNL1        0.4188
     26 F          62.5577   78.0458   10.3326 F       1  UNL1       -0.1659
     27 F          62.9361   79.9620    9.5050 F       1  UNL1       -0.1659
     28 F          62.5121   78.8943   12.2763 F       1  UNL1       -0.1659
     29 N          63.5022   82.5795   14.9482 N.pl3   1  UNL1        0.0814
     30 O          64.8795   82.4322   15.5239 O.2     1  UNL1        0.0415
     31 O          62.3477   82.9201   15.8431 O.co2   1  UNL1       -0.5760
@<TRIPOS>UNITY_ATOM_ATTR
29 1
charge 1
31 1
charge -1
@<TRIPOS>BOND
     1     1     2    2
     2     2     3   ar
     3     3     4   ar
     4     4    12    1
     5    12    13    1
     6    13    14    1
     7    14    15    1
     8    15    18    1
     9    18    19    1
    10    19    20    1
    11    20    21    1
    12    21    22    1
    13    22    23    1
    14    23    24    1
    15    15    16    1
    16    16    17    1
    17     4     5   ar
    18     5     6   ar
    19     6     7   ar
    20     7    29    1
    21    29    30    2
    22    29    31    1
    23     7     8   ar
    24     8     9   ar
    25     9    25    1
    26    25    26    1
    27    25    27    1
    28    25    28    1
    29     9    10   ar
    30    10    11   ar
    31    11     2   ar
    32    17    12    1
    33    11     6   ar
    34    24    19    1
@<TRIPOS>MOLECULE
*****
 31 34 0 0 0
SMALL
GASTEIGER

@<TRIPOS>ATOM
      1 O          64.0614   82.2196   15.7811 O.2     1  UNL1       -0.2651
      2 C          63.8091   83.3149   14.7878 C.ar    1  UNL1        0.2814
      3 N          63.9410   84.7499   15.2041 N.ar    1  UNL1       -0.1866
      4 C          63.6887   85.8452   14.2108 C.ar    1  UNL1        0.1665
      5 S          63.3046   85.5056   12.8012 S.2     1  UNL1       -0.0466
      6 C          63.1728   84.0706   12.3849 C.ar    1  UNL1        0.1059
      7 C          62.7886   83.7308   10.9752 C.ar    1  UNL1        0.2960
      8 C          62.6568   82.2958   10.5589 C.ar    1  UNL1        0.0797
      9 C          62.9090   81.2005   11.5522 C.ar    1  UNL1        0.0777
     10 C          63.2931   81.5402   12.9618 C.ar    1  UNL1        0.0096
     11 C          63.4250   82.9752   13.3782 C.ar    1  UNL1        0.0699
     12 N          63.8206   87.2803   14.6271 N.pl3   1  UNL1       -0.2852
     13 C          63.5142   87.6827   16.0393 C.3     1  UNL1        0.1100
     14 C          63.6460   89.1177   16.4557 C.3     1  UNL1        0.0939
     15 N          64.0844   90.1503   15.4599 N.3     1  UNL1       -0.2698
     16 C          64.3908   89.7480   14.0477 C.3     1  UNL1        0.0939
     17 C          64.2589   88.3129   13.6314 C.3     1  UNL1        0.1100
     18 C          64.2162   91.5853   15.8763 C.3     1  UNL1        0.0721
     19 C          65.4864   92.3332   15.5984 C.3     1  UNL1        0.0160
     20 C          66.5531   92.4162   16.6497 C.3     1  UNL1        0.0014
     21 C          67.8234   93.1641   16.3718 C.3     1  UNL1        0.0000
     22 C          68.0269   93.8290   15.0428 C.3     1  UNL1        0.0000
     23 C          66.9602   93.7459   13.9915 C.3     1  UNL1        0.0000
     24 C          65.6899   92.9980   14.2693 C.3     1  UNL1        0.0014
     25 C          62.7772   79.7654   11.1359 C.3     1  UNL1        0.4188
     26 F          62.6453   78.3305   10.7195 F       1  UNL1       -0.1659
     27 F          63.0373   80.1550    9.7109 F       1  UNL1       -0.1659
     28 F          62.5170   79.3759   12.5608 F       1  UNL1       -0.1659
     29 N          62.5364   84.8261    9.9819 N.pl3   1  UNL1        0.0814
     30 O          63.4327   84.9775    8.7886 O.2     1  UNL1        0.0415
     31 O          61.3879   85.7700   10.1818 O.co2   1  UNL1       -0.5760
@<TRIPOS>UNITY_ATOM_ATTR
29 1
charge 1
31 1
charge -1
@<TRIPOS>BOND
     1     1     2    2
     2     2     3   ar
     3     3     4   ar
     4     4    12    1
     5    12    13    1
     6    13    14    1
     7    14    15    1
     8    15    18    1
     9    18    19    1
    10    19    20    1
    11    20    21    1
    12    21    22    1
    13    22    23    1
    14    23    24    1
    15    15    16    1
    16    16    17    1
    17     4     5   ar
    18     5     6   ar
    19     6     7   ar
    20     7    29    1
    21    29    30    2
    22    29    31    1
    23     7     8   ar
    24     8     9   ar
    25     9    25    1
    26    25    26    1
    27    25    27    1
    28    25    28    1
    29     9    10   ar
    30    10    11   ar
    31    11     2   ar
    32    17    12    1
    33    11     6   ar
    34    24    19    1
@<TRIPOS>MOLECULE
*****
 31 34 0 0 0
SMALL
GASTEIGER

@<TRIPOS>ATOM
      1 O          61.2051   85.1563    9.7624 O.2     1  UNL1       -0.2651
      2 C          62.0117   85.7494   10.8794 C.ar    1  UNL1        0.2814
      3 N          62.4035   87.1966   10.8353 N.ar    1  UNL1       -0.1866
      4 C          63.2100   87.7896   11.9524 C.ar    1  UNL1        0.1665
      5 S          63.6248   86.9355   13.1135 S.2     1  UNL1       -0.0466
      6 C          63.2330   85.4882   13.1576 C.ar    1  UNL1        0.1059
      7 C          63.6478   84.6340   14.3188 C.ar    1  UNL1        0.2960
      8 C          63.2560   83.1867   14.3629 C.ar    1  UNL1        0.0797
      9 C          62.4494   82.5937   13.2459 C.ar    1  UNL1        0.0777
     10 C          62.0347   83.4479   12.0847 C.ar    1  UNL1        0.0096
     11 C          62.4264   84.8952   12.0406 C.ar    1  UNL1        0.0699
     12 N          63.6018   89.2369   11.9082 N.pl3   1  UNL1       -0.2852
     13 C          64.2350   89.8794   13.1067 C.3     1  UNL1        0.1100
     14 C          64.6268   91.3266   13.0626 C.3     1  UNL1        0.0939
     15 N          64.3853   92.1315   11.8200 N.3     1  UNL1       -0.2698
     16 C          63.7521   91.4891   10.6216 C.3     1  UNL1        0.0939
     17 C          63.3603   90.0417   10.6657 C.3     1  UNL1        0.1100
     18 C          64.7771   93.5787   11.7759 C.3     1  UNL1        0.0721
     19 C          65.8329   94.0410   10.8159 C.3     1  UNL1        0.0160
     20 C          66.8024   93.0547   10.2353 C.3     1  UNL1        0.0014
     21 C          67.8582   93.5170    9.2753 C.3     1  UNL1        0.0000
     22 C          67.9444   94.9656    8.8959 C.3     1  UNL1        0.0000
     23 C          66.9749   95.9519    9.4764 C.3     1  UNL1        0.0000
     24 C          65.9191   95.4896   10.4364 C.3     1  UNL1        0.0014
     25 C          62.0576   81.1464   13.2900 C.3     1  UNL1        0.4188
     26 F          61.6659   79.6991   13.3341 F       1  UNL1       -0.1659
     27 F          62.8444   80.8953   12.0379 F       1  UNL1       -0.1659
     28 F          61.2709   81.3975   14.5421 F       1  UNL1       -0.1659
     29 N          64.4543   85.2270   15.4358 N.pl3   1  UNL1        0.0814
     30 O          65.9116   85.5203   15.2350 O.2     1  UNL1        0.0415
     31 O          63.8036   85.5267   16.7537 O.co2   1  UNL1       -0.5760
@<TRIPOS>UNITY_ATOM_ATTR
29 1
charge 1
31 1
charge -1
@<TRIPOS>BOND
     1     1     2    2
     2     2     3   ar
     3     3     4   ar
     4     4    12    1
     5    12    13    1
     6    13    14    1
     7    14    15    1
     8    15    18    1
     9    18    19    1
    10    19    20    1
    11    20    21    1
    12    21    22    1
    13    22    23    1
    14    23    24    1
    15    15    16    1
    16    16    17    1
    17     4     5   ar
    18     5     6   ar
    19     6     7   ar
    20     7    29    1
    21    29    30    2
    22    29    31    1
    23     7     8   ar
    24     8     9   ar
    25     9    25    1
    26    25    26    1
    27    25    27    1
    28    25    28    1
    29     9    10   ar
    30    10    11   ar
    31    11     2   ar
    32    17    12    1
    33    11     6   ar
    34    24    19    1
