@<TRIPOS>MOLECULE
*****
 31 34 0 0 0
SMALL
GASTEIGER

@<TRIPOS>ATOM
      1 C          64.0763   85.5007   15.6692 C.ar    1  UNL1        0.1287
      2 C          64.6321   86.3980   14.6035 C.ar    1  UNL1        0.0338
      3 C          64.4141   87.8800   14.6822 C.ar    1  UNL1        0.0005
      4 C          63.6404   88.4646   15.8266 C.ar    1  UNL1        0.0015
      5 C          63.0846   87.5672   16.8923 C.ar    1  UNL1        0.0963
      6 N          63.3026   86.0853   16.8136 N.ar    1  UNL1       -0.2297
      7 N          64.2942   84.0187   15.5906 N.pl3   1  UNL1       -0.3144
      8 H          65.1000   83.6178   15.9896 H       1  UNL1        0.1485
      9 C          63.2844   83.1474   14.9041 C.3     1  UNL1        0.1169
     10 C          62.6552   81.6615   12.8678 C.ar    1  UNL1        0.0721
     11 C          62.8503   81.2762   11.4313 C.ar    1  UNL1        0.0243
     12 C          63.8694   81.9914   10.5947 C.ar    1  UNL1        0.0988
     13 N          64.6935   83.0918   11.1945 N.ar    1  UNL1       -0.2426
     14 C          64.4985   83.4772   12.6310 C.ar    1  UNL1        0.0962
     15 C          63.4793   82.7620   13.4676 C.ar    1  UNL1        0.0205
     16 F          60.6170   80.2311   14.5411 F       1  UNL1       -0.1659
     17 C          61.6361   80.9464   13.7044 C.3     1  UNL1        0.4184
     18 F          61.0249   82.2623   14.0847 F       1  UNL1       -0.1659
     19 F          62.2474   79.6304   13.3241 F       1  UNL1       -0.1659
     20 C          63.4225   89.9467   15.9052 C.3     1  UNL1        0.0559
     21 C          64.2198   90.8694   15.0317 C.ar    1  UNL1        0.0043
     22 C          65.3228   91.7790   15.4854 C.ar    1  UNL1        0.0966
     23 N          65.8387   92.5162   14.2853 N.ar    1  UNL1       -0.2273
     24 C          65.0545   92.0622   13.0899 C.ar    1  UNL1        0.1403
     25 N          65.1223   92.4441   11.6409 N.ar    1  UNL1       -0.3367
     26 C          64.1895   91.8082   10.6533 C.ar    1  UNL1        0.0850
     27 C          63.1889   90.7904   11.1147 C.ar    1  UNL1        0.0747
     28 CL         62.2560   90.1545   10.1270 Cl      1  UNL1       -0.0807
     29 C          63.1211   90.4085   12.5636 C.ar    1  UNL1        0.0156
     30 C          64.0539   91.0444   13.5512 C.ar    1  UNL1        0.0327
     31 H          65.7790   93.1121   11.3381 H       1  UNL1        0.1674
@<TRIPOS>BOND
     1    16    17    1
     2    17    18    1
     3    17    19    1
     4    17    10    1
     5    10    11   ar
     6    11    12   ar
     7    12    13   ar
     8    13    14   ar
     9    14    15   ar
    10    15     9    1
    11     9     7    1
    12     7     1    1
    13     1     2   ar
    14     2     3   ar
    15     3     4   ar
    16     4    20    1
    17    20    21    1
    18    21    22   ar
    19    22    23   ar
    20    23    24   ar
    21    24    25   ar
    22    25    26   ar
    23    26    27   ar
    24    27    28    1
    25    27    29   ar
    26    29    30   ar
    27     4     5   ar
    28     5     6   ar
    29    15    10   ar
    30     6     1   ar
    31    30    21   ar
    32    30    24    1
    33     7     8    1
    34    25    31    1
@<TRIPOS>MOLECULE
*****
 31 34 0 0 0
SMALL
GASTEIGER

@<TRIPOS>ATOM
      1 C          63.5700   86.1990   15.6146 C.ar    1  UNL1        0.1287
      2 C          64.3064   86.9266   14.5292 C.ar    1  UNL1        0.0338
      3 C          64.4250   88.4212   14.5752 C.ar    1  UNL1        0.0005
      4 C          63.8072   89.1881   15.7066 C.ar    1  UNL1        0.0015
      5 C          63.0708   88.4605   16.7921 C.ar    1  UNL1        0.0963
      6 N          62.9522   86.9659   16.7460 N.ar    1  UNL1       -0.2297
      7 N          63.4513   84.7044   15.5687 N.pl3   1  UNL1       -0.3144
      8 H          64.1622   84.1421   15.9531 H       1  UNL1        0.1485
      9 C          62.2496   84.0664   14.9371 C.3     1  UNL1        0.1169
     10 C          62.8380   83.1118   12.5934 C.ar    1  UNL1        0.0721
     11 C          63.0078   81.9392   11.6736 C.ar    1  UNL1        0.0243
     12 C          62.7591   80.5485   12.1777 C.ar    1  UNL1        0.0988
     13 N          62.3405   80.3304   13.6015 N.ar    1  UNL1       -0.2426
     14 C          62.1707   81.5031   14.5213 C.ar    1  UNL1        0.0962
     15 C          62.4195   82.8938   14.0172 C.ar    1  UNL1        0.0205
     16 F          63.3353   85.8933   11.5853 F       1  UNL1       -0.1659
     17 C          63.0867   84.5026   12.0894 C.3     1  UNL1        0.4184
     18 F          64.5006   84.4292   12.5845 F       1  UNL1       -0.1659
     19 F          61.6726   84.5759   11.5942 F       1  UNL1       -0.1659
     20 C          63.9259   90.6828   15.7526 C.3     1  UNL1        0.0559
     21 C          64.9851   91.3761   14.9481 C.ar    1  UNL1        0.0043
     22 C          66.2716   91.9350   15.4796 C.ar    1  UNL1        0.0966
     23 N          67.0253   92.5366   14.3308 N.ar    1  UNL1       -0.2273
     24 C          66.2047   92.3496   13.0892 C.ar    1  UNL1        0.1403
     25 N          66.4427   92.7397   11.6605 N.ar    1  UNL1       -0.3367
     26 C          65.4198   92.4126   10.6134 C.ar    1  UNL1        0.0850
     27 C          64.1588   91.6954   10.9949 C.ar    1  UNL1        0.0747
     28 CL         63.1358   91.3683    9.9477 Cl      1  UNL1       -0.0807
     29 C          63.9208   91.3053   12.4235 C.ar    1  UNL1        0.0156
     30 C          64.9437   91.6324   13.4707 C.ar    1  UNL1        0.0327
     31 H          67.2703   93.2105   11.4101 H       1  UNL1        0.1674
@<TRIPOS>BOND
     1    16    17    1
     2    17    18    1
     3    17    19    1
     4    17    10    1
     5    10    11   ar
     6    11    12   ar
     7    12    13   ar
     8    13    14   ar
     9    14    15   ar
    10    15     9    1
    11     9     7    1
    12     7     1    1
    13     1     2   ar
    14     2     3   ar
    15     3     4   ar
    16     4    20    1
    17    20    21    1
    18    21    22   ar
    19    22    23   ar
    20    23    24   ar
    21    24    25   ar
    22    25    26   ar
    23    26    27   ar
    24    27    28    1
    25    27    29   ar
    26    29    30   ar
    27     4     5   ar
    28     5     6   ar
    29    15    10   ar
    30     6     1   ar
    31    30    21   ar
    32    30    24    1
    33     7     8    1
    34    25    31    1
@<TRIPOS>MOLECULE
*****
 31 34 0 0 0
SMALL
GASTEIGER

@<TRIPOS>ATOM
      1 C          61.8239   89.6263   11.6377 C.ar    1  UNL1        0.1287
      2 C          61.9837   90.1930   10.2580 C.ar    1  UNL1        0.0338
      3 C          63.0335   91.2303    9.9903 C.ar    1  UNL1        0.0005
      4 C          63.9235   91.7011   11.1022 C.ar    1  UNL1        0.0015
      5 C          63.7637   91.1345   12.4818 C.ar    1  UNL1        0.0963
      6 N          62.7139   90.0971   12.7495 N.ar    1  UNL1       -0.2297
      7 N          60.7742   88.5889   11.9054 N.pl3   1  UNL1       -0.3144
      8 H          60.5169   88.3766   12.8317 H       1  UNL1        0.1485
      9 C          60.1163   87.8749   10.7620 C.3     1  UNL1        0.1169
     10 C          60.5984   86.8067    8.4432 C.ar    1  UNL1        0.0721
     11 C          61.3964   85.8704    7.5850 C.ar    1  UNL1        0.0243
     12 C          62.5101   85.0661    8.1872 C.ar    1  UNL1        0.0988
     13 N          62.8258   85.1980    9.6477 N.ar    1  UNL1       -0.2426
     14 C          62.0279   86.1343   10.5059 C.ar    1  UNL1        0.0962
     15 C          60.9142   86.9387    9.9037 C.ar    1  UNL1        0.0205
     16 F          58.3710   88.4155    7.2388 F       1  UNL1       -0.1659
     17 C          59.4847   87.6111    7.8410 C.3     1  UNL1        0.4184
     18 F          58.6041   86.3969    7.8478 F       1  UNL1       -0.1659
     19 F          60.3654   88.8253    7.8343 F       1  UNL1       -0.1659
     20 C          64.9734   92.7386   10.8344 C.3     1  UNL1        0.0559
     21 C          66.4089   92.4556   11.1647 C.ar    1  UNL1        0.0043
     22 C          67.4985   92.1576   10.1779 C.ar    1  UNL1        0.0966
     23 N          68.7699   91.9387   10.9432 N.ar    1  UNL1       -0.2273
     24 C          68.4660   92.1015   12.4031 C.ar    1  UNL1        0.1403
     25 N          69.3295   92.0002   13.6254 N.ar    1  UNL1       -0.3367
     26 C          68.7338   92.2182   14.9846 C.ar    1  UNL1        0.0850
     27 C          67.2746   92.5377   15.1215 C.ar    1  UNL1        0.0747
     28 CL         66.6789   92.7558   16.4808 Cl      1  UNL1       -0.0807
     29 C          66.4111   92.6391   13.8992 C.ar    1  UNL1        0.0156
     30 C          67.0068   92.4210   12.5400 C.ar    1  UNL1        0.0327
     31 H          70.2872   91.7905   13.5355 H       1  UNL1        0.1674
@<TRIPOS>BOND
     1    16    17    1
     2    17    18    1
     3    17    19    1
     4    17    10    1
     5    10    11   ar
     6    11    12   ar
     7    12    13   ar
     8    13    14   ar
     9    14    15   ar
    10    15     9    1
    11     9     7    1
    12     7     1    1
    13     1     2   ar
    14     2     3   ar
    15     3     4   ar
    16     4    20    1
    17    20    21    1
    18    21    22   ar
    19    22    23   ar
    20    23    24   ar
    21    24    25   ar
    22    25    26   ar
    23    26    27   ar
    24    27    28    1
    25    27    29   ar
    26    29    30   ar
    27     4     5   ar
    28     5     6   ar
    29    15    10   ar
    30     6     1   ar
    31    30    21   ar
    32    30    24    1
    33     7     8    1
    34    25    31    1
@<TRIPOS>MOLECULE
*****
 31 34 0 0 0
SMALL
GASTEIGER

@<TRIPOS>ATOM
      1 C          62.1958   87.6856   11.2996 C.ar    1  UNL1        0.1287
      2 C          62.0278   88.4667   10.0301 C.ar    1  UNL1        0.0338
      3 C          62.5625   89.8648    9.9336 C.ar    1  UNL1        0.0005
      4 C          63.2651   90.4818   11.1064 C.ar    1  UNL1        0.0015
      5 C          63.4331   89.7007   12.3759 C.ar    1  UNL1        0.0963
      6 N          62.8985   88.3026   12.4725 N.ar    1  UNL1       -0.2297
      7 N          61.6611   86.2875   11.3963 N.pl3   1  UNL1       -0.3144
      8 H          60.6947   86.1367   11.5076 H       1  UNL1        0.1485
      9 C          62.5990   85.1190   11.3234 C.3     1  UNL1        0.1169
     10 C          63.5064   83.0392   12.5886 C.ar    1  UNL1        0.0721
     11 C          64.0139   82.4051   13.8497 C.ar    1  UNL1        0.0243
     12 C          64.1216   83.2167   15.1066 C.ar    1  UNL1        0.0988
     13 N          63.7217   84.6624   15.1023 N.ar    1  UNL1       -0.2426
     14 C          63.2142   85.2965   13.8413 C.ar    1  UNL1        0.0962
     15 C          63.1065   84.4849   12.5844 C.ar    1  UNL1        0.0205
     16 F          63.2912   81.4160   10.0749 F       1  UNL1       -0.1659
     17 C          63.3987   82.2276   11.3318 C.3     1  UNL1        0.4184
     18 F          62.0585   81.7199   11.7743 F       1  UNL1       -0.1659
     19 F          64.7391   82.7353   10.8892 F       1  UNL1       -0.1659
     20 C          63.7998   91.8801   11.0098 C.3     1  UNL1        0.0559
     21 C          65.2155   92.1711   11.4112 C.ar    1  UNL1        0.0043
     22 C          66.3686   92.3935   10.4780 C.ar    1  UNL1        0.0966
     23 N          67.5923   92.6506   11.3065 N.ar    1  UNL1       -0.2273
     24 C          67.1956   92.5871   12.7517 C.ar    1  UNL1        0.1403
     25 N          67.9821   92.7609   14.0170 N.ar    1  UNL1       -0.3367
     26 C          67.2996   92.6383   15.3471 C.ar    1  UNL1        0.0850
     27 C          65.8306   92.3419   15.4118 C.ar    1  UNL1        0.0747
     28 CL         65.1482   92.2193   16.7420 Cl      1  UNL1       -0.0807
     29 C          65.0441   92.1681   14.1465 C.ar    1  UNL1        0.0156
     30 C          65.7266   92.2907   12.8164 C.ar    1  UNL1        0.0327
     31 H          68.9463   92.9554   13.9745 H       1  UNL1        0.1674
@<TRIPOS>BOND
     1    16    17    1
     2    17    18    1
     3    17    19    1
     4    17    10    1
     5    10    11   ar
     6    11    12   ar
     7    12    13   ar
     8    13    14   ar
     9    14    15   ar
    10    15     9    1
    11     9     7    1
    12     7     1    1
    13     1     2   ar
    14     2     3   ar
    15     3     4   ar
    16     4    20    1
    17    20    21    1
    18    21    22   ar
    19    22    23   ar
    20    23    24   ar
    21    24    25   ar
    22    25    26   ar
    23    26    27   ar
    24    27    28    1
    25    27    29   ar
    26    29    30   ar
    27     4     5   ar
    28     5     6   ar
    29    15    10   ar
    30     6     1   ar
    31    30    21   ar
    32    30    24    1
    33     7     8    1
    34    25    31    1
@<TRIPOS>MOLECULE
*****
 31 34 0 0 0
SMALL
GASTEIGER

@<TRIPOS>ATOM
      1 C          62.0077   88.6215   11.2084 C.ar    1  UNL1        0.1287
      2 C          62.0369   89.4637    9.9675 C.ar    1  UNL1        0.0338
      3 C          62.8648   90.7139    9.9290 C.ar    1  UNL1        0.0005
      4 C          63.6634   91.1220   11.1314 C.ar    1  UNL1        0.0015
      5 C          63.6342   90.2798   12.3723 C.ar    1  UNL1        0.0963
      6 N          62.8063   89.0295   12.4107 N.ar    1  UNL1       -0.2297
      7 N          61.1798   87.3713   11.2469 N.pl3   1  UNL1       -0.3144
      8 H          60.3314   87.3272   10.7495 H       1  UNL1        0.1485
      9 C          61.6446   86.1881   12.0433 C.3     1  UNL1        0.1169
     10 C          63.2928   84.1928   12.2722 C.ar    1  UNL1        0.0721
     11 C          64.1882   83.1686   11.6405 C.ar    1  UNL1        0.0243
     12 C          64.3310   83.1154   10.1483 C.ar    1  UNL1        0.0988
     13 N          63.5783   84.0864    9.2877 N.ar    1  UNL1       -0.2426
     14 C          62.6828   85.1107    9.9194 C.ar    1  UNL1        0.0962
     15 C          62.5401   85.1639   11.4117 C.ar    1  UNL1        0.0205
     16 F          63.0072   84.2992   15.2568 F       1  UNL1       -0.1659
     17 C          63.1500   84.2461   13.7645 C.3     1  UNL1        0.4184
     18 F          64.0971   85.4081   13.8137 F       1  UNL1       -0.1659
     19 F          62.2029   83.0839   13.7152 F       1  UNL1       -0.1659
     20 C          64.4914   92.3723   11.0929 C.3     1  UNL1        0.0559
     21 C          65.9564   92.3117   11.4091 C.ar    1  UNL1        0.0043
     22 C          67.0712   92.2213   10.4095 C.ar    1  UNL1        0.0966
     23 N          68.3676   92.1847   11.1632 N.ar    1  UNL1       -0.2273
     24 C          68.0541   92.2525   12.6285 C.ar    1  UNL1        0.1403
     25 N          68.9330   92.2529   13.8440 N.ar    1  UNL1       -0.3367
     26 C          68.3217   92.3318   15.2114 C.ar    1  UNL1        0.0850
     27 C          66.8315   92.4103   15.3634 C.ar    1  UNL1        0.0747
     28 CL         66.2202   92.4893   16.7310 Cl      1  UNL1       -0.0807
     29 C          65.9526   92.4100   14.1480 C.ar    1  UNL1        0.0156
     30 C          66.5639   92.3310   12.7805 C.ar    1  UNL1        0.0327
     31 H          69.9111   92.2013   13.7442 H       1  UNL1        0.1674
@<TRIPOS>BOND
     1    16    17    1
     2    17    18    1
     3    17    19    1
     4    17    10    1
     5    10    11   ar
     6    11    12   ar
     7    12    13   ar
     8    13    14   ar
     9    14    15   ar
    10    15     9    1
    11     9     7    1
    12     7     1    1
    13     1     2   ar
    14     2     3   ar
    15     3     4   ar
    16     4    20    1
    17    20    21    1
    18    21    22   ar
    19    22    23   ar
    20    23    24   ar
    21    24    25   ar
    22    25    26   ar
    23    26    27   ar
    24    27    28    1
    25    27    29   ar
    26    29    30   ar
    27     4     5   ar
    28     5     6   ar
    29    15    10   ar
    30     6     1   ar
    31    30    21   ar
    32    30    24    1
    33     7     8    1
    34    25    31    1
@<TRIPOS>MOLECULE
*****
 31 34 0 0 0
SMALL
GASTEIGER

@<TRIPOS>ATOM
      1 C          62.4628   87.0757   11.3985 C.ar    1  UNL1        0.1287
      2 C          62.1105   87.8904   10.1894 C.ar    1  UNL1        0.0338
      3 C          62.4210   89.3575   10.1572 C.ar    1  UNL1        0.0005
      4 C          63.0838   90.0099   11.3341 C.ar    1  UNL1        0.0015
      5 C          63.4360   89.1952   12.5433 C.ar    1  UNL1        0.0963
      6 N          63.1255   87.7281   12.5755 N.ar    1  UNL1       -0.2297
      7 N          62.1523   85.6085   11.4308 N.pl3   1  UNL1       -0.3144
      8 H          61.2215   85.3045   11.5336 H       1  UNL1        0.1485
      9 C          63.2598   84.6045   11.3066 C.3     1  UNL1        0.1169
     10 C          63.5533   83.3429   13.5588 C.ar    1  UNL1        0.0721
     11 C          63.5039   82.0699   14.3506 C.ar    1  UNL1        0.0243
     12 C          63.1117   80.7856   13.6822 C.ar    1  UNL1        0.0988
     13 N          62.7689   80.7743   12.2220 N.ar    1  UNL1       -0.2426
     14 C          62.8183   82.0473   11.4301 C.ar    1  UNL1        0.0962
     15 C          63.2105   83.3316   12.0985 C.ar    1  UNL1        0.0205
     16 F          64.3376   85.9115   14.8956 F       1  UNL1       -0.1659
     17 C          63.9455   84.6272   14.2272 C.3     1  UNL1        0.4184
     18 F          65.3794   84.3783   13.8642 F       1  UNL1       -0.1659
     19 F          62.5114   84.8761   14.5901 F       1  UNL1       -0.1659
     20 C          63.3943   91.4772   11.3018 C.3     1  UNL1        0.0559
     21 C          64.7888   91.9549   11.5793 C.ar    1  UNL1        0.0043
     22 C          65.8283   92.2868   10.5500 C.ar    1  UNL1        0.0966
     23 N          67.0706   92.7216   11.2695 N.ar    1  UNL1       -0.2273
     24 C          66.7989   92.6585   12.7433 C.ar    1  UNL1        0.1403
     25 N          67.6535   92.9713   13.9357 N.ar    1  UNL1       -0.3367
     26 C          67.0978   92.8102   15.3196 C.ar    1  UNL1        0.0850
     27 C          65.6875   92.3363   15.5111 C.ar    1  UNL1        0.0747
     28 CL         65.1319   92.1752   16.8951 Cl      1  UNL1       -0.0807
     29 C          64.8330   92.0235   14.3187 C.ar    1  UNL1        0.0156
     30 C          65.3887   92.1846   12.9348 C.ar    1  UNL1        0.0327
     31 H          68.5791   93.2823   13.8100 H       1  UNL1        0.1674
@<TRIPOS>BOND
     1    16    17    1
     2    17    18    1
     3    17    19    1
     4    17    10    1
     5    10    11   ar
     6    11    12   ar
     7    12    13   ar
     8    13    14   ar
     9    14    15   ar
    10    15     9    1
    11     9     7    1
    12     7     1    1
    13     1     2   ar
    14     2     3   ar
    15     3     4   ar
    16     4    20    1
    17    20    21    1
    18    21    22   ar
    19    22    23   ar
    20    23    24   ar
    21    24    25   ar
    22    25    26   ar
    23    26    27   ar
    24    27    28    1
    25    27    29   ar
    26    29    30   ar
    27     4     5   ar
    28     5     6   ar
    29    15    10   ar
    30     6     1   ar
    31    30    21   ar
    32    30    24    1
    33     7     8    1
    34    25    31    1
@<TRIPOS>MOLECULE
*****
 31 34 0 0 0
SMALL
GASTEIGER

@<TRIPOS>ATOM
      1 C          62.5531   89.8948   11.3135 C.ar    1  UNL1        0.1287
      2 C          61.8605   89.5877   10.0189 C.ar    1  UNL1        0.0338
      3 C          61.5944   88.1636    9.6302 C.ar    1  UNL1        0.0005
      4 C          62.0208   87.0466   10.5360 C.ar    1  UNL1        0.0015
      5 C          62.7133   87.3537   11.8306 C.ar    1  UNL1        0.0963
      6 N          62.9795   88.7778   12.2193 N.ar    1  UNL1       -0.2297
      7 N          62.8193   91.3188   11.7023 N.pl3   1  UNL1       -0.3144
      8 H          62.1116   91.8526   12.1305 H       1  UNL1        0.1485
      9 C          64.1637   91.9296   11.4385 C.3     1  UNL1        0.1169
     10 C          66.5769   92.4834   12.2258 C.ar    1  UNL1        0.0721
     11 C          67.6461   92.4252   13.2762 C.ar    1  UNL1        0.0243
     12 C          67.3714   91.7549   14.5897 C.ar    1  UNL1        0.0988
     13 N          66.0274   91.1429   14.8528 N.ar    1  UNL1       -0.2426
     14 C          64.9582   91.2012   13.8024 C.ar    1  UNL1        0.0962
     15 C          65.2330   91.8714   12.4889 C.ar    1  UNL1        0.0205
     16 F          67.1264   93.8238    9.5987 F       1  UNL1       -0.1659
     17 C          66.8517   93.1537   10.9123 C.3     1  UNL1        0.4184
     18 F          66.3227   94.4456   11.4608 F       1  UNL1       -0.1659
     19 F          67.3807   91.8616   10.3637 F       1  UNL1       -0.1659
     20 C          61.7546   85.6225   10.1472 C.3     1  UNL1        0.0559
     21 C          62.7791   84.5639   10.4297 C.ar    1  UNL1        0.0043
     22 C          63.6874   83.9246    9.4216 C.ar    1  UNL1        0.0966
     23 N          64.5448   82.9244   10.1388 N.ar    1  UNL1       -0.2273
     24 C          64.1664   82.9454   11.5902 C.ar    1  UNL1        0.1403
     25 N          64.6745   82.1729   12.7712 N.ar    1  UNL1       -0.3367
     26 C          64.0913   82.4136   14.1320 C.ar    1  UNL1        0.0850
     27 C          63.0000   83.4268   14.3118 C.ar    1  UNL1        0.0747
     28 CL         62.4168   83.6675   15.6727 Cl      1  UNL1       -0.0807
     29 C          62.4919   84.1994   13.1308 C.ar    1  UNL1        0.0156
     30 C          63.0751   83.9587   11.7699 C.ar    1  UNL1        0.0327
     31 H          65.3907   81.5078   12.6532 H       1  UNL1        0.1674
@<TRIPOS>BOND
     1    16    17    1
     2    17    18    1
     3    17    19    1
     4    17    10    1
     5    10    11   ar
     6    11    12   ar
     7    12    13   ar
     8    13    14   ar
     9    14    15   ar
    10    15     9    1
    11     9     7    1
    12     7     1    1
    13     1     2   ar
    14     2     3   ar
    15     3     4   ar
    16     4    20    1
    17    20    21    1
    18    21    22   ar
    19    22    23   ar
    20    23    24   ar
    21    24    25   ar
    22    25    26   ar
    23    26    27   ar
    24    27    28    1
    25    27    29   ar
    26    29    30   ar
    27     4     5   ar
    28     5     6   ar
    29    15    10   ar
    30     6     1   ar
    31    30    21   ar
    32    30    24    1
    33     7     8    1
    34    25    31    1
@<TRIPOS>MOLECULE
*****
 31 34 0 0 0
SMALL
GASTEIGER

@<TRIPOS>ATOM
      1 C          64.1955   85.9992   14.0419 C.ar    1  UNL1        0.1287
      2 C          64.5834   87.2007   14.8518 C.ar    1  UNL1        0.0338
      3 C          64.1456   88.5690   14.4206 C.ar    1  UNL1        0.0005
      4 C          63.3198   88.7359   13.1795 C.ar    1  UNL1        0.0015
      5 C          62.9319   87.5344   12.3696 C.ar    1  UNL1        0.0963
      6 N          63.3697   86.1661   12.8008 N.ar    1  UNL1       -0.2297
      7 N          64.6333   84.6309   14.4730 N.pl3   1  UNL1       -0.3144
      8 H          65.5019   84.5102   14.9205 H       1  UNL1        0.1485
      9 C          63.7478   83.4463   14.2225 C.3     1  UNL1        0.1169
     10 C          62.7778   81.6729   12.5903 C.ar    1  UNL1        0.0721
     11 C          62.7731   81.0115   11.2441 C.ar    1  UNL1        0.0243
     12 C          63.7336   81.4621   10.1837 C.ar    1  UNL1        0.0988
     13 N          64.6989   82.5741   10.4696 N.ar    1  UNL1       -0.2426
     14 C          64.7035   83.2355   11.8159 C.ar    1  UNL1        0.0962
     15 C          63.7430   82.7849   12.8763 C.ar    1  UNL1        0.0205
     16 F          60.8567   80.7718   14.7111 F       1  UNL1       -0.1659
     17 C          61.8172   81.2223   13.6507 C.3     1  UNL1        0.4184
     18 F          62.2008   79.7955   13.3919 F       1  UNL1       -0.1659
     19 F          61.4337   82.6492   13.9095 F       1  UNL1       -0.1659
     20 C          62.8820   90.1043   12.7483 C.3     1  UNL1        0.0559
     21 C          63.8876   91.0789   12.2108 C.ar    1  UNL1        0.0043
     22 C          64.0250   91.5045   10.7790 C.ar    1  UNL1        0.0966
     23 N          65.1547   92.4876   10.6941 N.ar    1  UNL1       -0.2273
     24 C          65.7157   92.6695   12.0733 C.ar    1  UNL1        0.1403
     25 N          66.8383   93.5154   12.5967 N.ar    1  UNL1       -0.3367
     26 C          67.1779   93.4906   14.0576 C.ar    1  UNL1        0.0850
     27 C          66.3947   92.6200   14.9950 C.ar    1  UNL1        0.0747
     28 CL         66.7343   92.5953   16.4559 Cl      1  UNL1       -0.0807
     29 C          65.2721   91.7741   14.4715 C.ar    1  UNL1        0.0156
     30 C          64.9325   91.7988   13.0107 C.ar    1  UNL1        0.0327
     31 H          67.3523   94.0868   11.9815 H       1  UNL1        0.1674
@<TRIPOS>BOND
     1    16    17    1
     2    17    18    1
     3    17    19    1
     4    17    10    1
     5    10    11   ar
     6    11    12   ar
     7    12    13   ar
     8    13    14   ar
     9    14    15   ar
    10    15     9    1
    11     9     7    1
    12     7     1    1
    13     1     2   ar
    14     2     3   ar
    15     3     4   ar
    16     4    20    1
    17    20    21    1
    18    21    22   ar
    19    22    23   ar
    20    23    24   ar
    21    24    25   ar
    22    25    26   ar
    23    26    27   ar
    24    27    28    1
    25    27    29   ar
    26    29    30   ar
    27     4     5   ar
    28     5     6   ar
    29    15    10   ar
    30     6     1   ar
    31    30    21   ar
    32    30    24    1
    33     7     8    1
    34    25    31    1
@<TRIPOS>MOLECULE
*****
 31 34 0 0 0
SMALL
GASTEIGER

@<TRIPOS>ATOM
      1 C          61.7988   89.7841   11.5320 C.ar    1  UNL1        0.1287
      2 C          62.4508   90.7428   10.5802 C.ar    1  UNL1        0.0338
      3 C          63.6627   91.5164   11.0077 C.ar    1  UNL1        0.0005
      4 C          64.2226   91.3314   12.3870 C.ar    1  UNL1        0.0015
      5 C          63.5706   90.3727   13.3387 C.ar    1  UNL1        0.0963
      6 N          62.3587   89.5991   12.9112 N.ar    1  UNL1       -0.2297
      7 N          60.5869   89.0104   11.1046 N.pl3   1  UNL1       -0.3144
      8 H          59.8193   89.4795   10.7046 H       1  UNL1        0.1485
      9 C          60.5445   87.5221   11.2865 C.3     1  UNL1        0.1169
     10 C          61.0267   86.6674    8.8809 C.ar    1  UNL1        0.0721
     11 C          61.7912   85.7757    7.9481 C.ar    1  UNL1        0.0243
     12 C          62.8380   84.8468    8.4879 C.ar    1  UNL1        0.0988
     13 N          63.1203   84.8098    9.9607 N.ar    1  UNL1       -0.2426
     14 C          62.3558   85.7015   10.8935 C.ar    1  UNL1        0.0962
     15 C          61.3090   86.6304   10.3536 C.ar    1  UNL1        0.0205
     16 F          58.9331   88.5252    7.8011 F       1  UNL1       -0.1659
     17 C          59.9799   87.5963    8.3410 C.3     1  UNL1        0.4184
     18 F          58.9671   86.4918    8.4046 F       1  UNL1       -0.1659
     19 F          60.9928   88.7008    8.2775 F       1  UNL1       -0.1659
     20 C          65.4346   92.1051   12.8144 C.3     1  UNL1        0.0559
     21 C          66.4925   92.4566   11.8108 C.ar    1  UNL1        0.0043
     22 C          67.7683   91.7040   11.5743 C.ar    1  UNL1        0.0966
     23 N          68.5245   92.4047   10.4847 N.ar    1  UNL1       -0.2273
     24 C          67.7161   93.5903   10.0479 C.ar    1  UNL1        0.1403
     25 N          67.9614   94.6449    9.0097 N.ar    1  UNL1       -0.3367
     26 C          66.9507   95.7314    8.7911 C.ar    1  UNL1        0.0850
     27 C          65.6948   95.7635    9.6107 C.ar    1  UNL1        0.0747
     28 CL         64.6841   96.8501    9.3920 Cl      1  UNL1       -0.0807
     29 C          65.4495   94.7090   10.6488 C.ar    1  UNL1        0.0156
     30 C          66.4602   93.6224   10.8674 C.ar    1  UNL1        0.0327
     31 H          68.7856   94.6238    8.4718 H       1  UNL1        0.1674
@<TRIPOS>BOND
     1    16    17    1
     2    17    18    1
     3    17    19    1
     4    17    10    1
     5    10    11   ar
     6    11    12   ar
     7    12    13   ar
     8    13    14   ar
     9    14    15   ar
    10    15     9    1
    11     9     7    1
    12     7     1    1
    13     1     2   ar
    14     2     3   ar
    15     3     4   ar
    16     4    20    1
    17    20    21    1
    18    21    22   ar
    19    22    23   ar
    20    23    24   ar
    21    24    25   ar
    22    25    26   ar
    23    26    27   ar
    24    27    28    1
    25    27    29   ar
    26    29    30   ar
    27     4     5   ar
    28     5     6   ar
    29    15    10   ar
    30     6     1   ar
    31    30    21   ar
    32    30    24    1
    33     7     8    1
    34    25    31    1
