@<TRIPOS>MOLECULE
*****
 27 30 0 0 0
SMALL
GASTEIGER

@<TRIPOS>ATOM
      1 C          60.8952   88.9291   10.1709 C.2     1  UNL1        0.2252
      2 O          59.9171   89.9741   10.6197 O.2     1  UNL1       -0.2750
      3 N          62.3509   89.2686   10.0464 N.am    1  UNL1       -0.3004
      4 H          62.9929   88.5828    9.7518 H       1  UNL1        0.1497
      5 C          60.4174   87.5447    9.8466 C.3     1  UNL1        0.1154
      6 C          61.2796   86.3232    8.5071 C.3     1  UNL1        0.0335
      7 C          61.3436   86.3754   10.0048 C.3     1  UNL1        0.1377
      8 C          62.2564   85.1952    9.8499 C.3     1  UNL1        0.0613
      9 C          62.6909   84.7625   11.2189 C.3     1  UNL1        0.1290
     10 C          63.0374   84.4472   12.6438 C.3     1  UNL1        0.0305
     11 C          63.9550   83.3027   12.9569 C.3     1  UNL1        0.0025
     12 C          64.5261   82.4735   11.8450 C.3     1  UNL1        0.0002
     13 C          64.1796   82.7888   10.4200 C.3     1  UNL1        0.0025
     14 C          63.2620   83.9333   10.1070 C.3     1  UNL1        0.0305
     15 O          62.0466   85.6753   12.2197 O.3     1  UNL1       -0.2256
     16 O          61.2139   86.6721   11.4694 O.3     1  UNL1       -0.2251
     17 C          62.8285   90.6530   10.3707 C.3     1  UNL1        0.1164
     18 C          63.5709   90.9102   11.6486 C.ar    1  UNL1        0.0006
     19 C          63.3445   90.0254   12.8385 C.ar    1  UNL1        0.0007
     20 C          64.0868   90.2825   14.1163 C.ar    1  UNL1        0.0398
     21 C          65.0556   91.4244   14.2042 C.ar    1  UNL1        0.1724
     22 C          65.2820   92.3091   13.0143 C.ar    1  UNL1        0.1721
     23 C          64.5396   92.0520   11.7364 C.ar    1  UNL1        0.0374
     24 O          66.2507   93.4510   13.1021 O.3     1  UNL1       -0.4684
     25 C          66.9930   93.7081   14.3799 C.3     1  UNL1        0.2526
     26 C          66.7666   92.8233   15.5699 C.3     1  UNL1        0.2526
     27 O          65.7979   91.6815   15.4820 O.3     1  UNL1       -0.4684
@<TRIPOS>BOND
     1     6     7    1
     2     7     5    1
     3     5     1    1
     4     1     2    2
     5     1     3   am
     6     3    17    1
     7    17    18    1
     8    18    19   ar
     9    19    20   ar
    10    20    21   ar
    11    21    22   ar
    12    22    23   ar
    13    22    24    1
    14    24    25    1
    15    25    26    1
    16    26    27    1
    17     7     8    1
    18     8     9    1
    19     9    10    1
    20    10    11    1
    21    11    12    1
    22    12    13    1
    23    13    14    1
    24     9    15    1
    25    15    16    1
    26    16     7    1
    27    23    18   ar
    28    14     9    1
    29    27    21    1
    30     3     4    1
@<TRIPOS>MOLECULE
*****
 27 30 0 0 0
SMALL
GASTEIGER

@<TRIPOS>ATOM
      1 C          61.0898   88.3927    9.8839 C.2     1  UNL1        0.2252
      2 O          59.7840   87.6846   10.0926 O.2     1  UNL1       -0.2750
      3 N          62.2932   87.6260    9.4214 N.am    1  UNL1       -0.3004
      4 H          63.1503   88.0907    9.2845 H       1  UNL1        0.1497
      5 C          61.1922   89.8675   10.1378 C.3     1  UNL1        0.1154
      6 C          62.7207   91.1129    9.7605 C.3     1  UNL1        0.0335
      7 C          62.2883   90.4042   11.0098 C.3     1  UNL1        0.1377
      8 C          63.4749   91.0889   11.6207 C.3     1  UNL1        0.0613
      9 C          63.5467   90.6912   13.0653 C.3     1  UNL1        0.1290
     10 C          63.4901   90.2069   14.4838 C.3     1  UNL1        0.0305
     11 C          64.5227   90.6602   15.4728 C.3     1  UNL1        0.0025
     12 C          65.6120   91.5978   15.0433 C.3     1  UNL1        0.0002
     13 C          65.6686   92.0821   13.6248 C.3     1  UNL1        0.0025
     14 C          64.6359   91.6288   12.6358 C.3     1  UNL1        0.0305
     15 O          62.4045   89.7607   13.3471 O.3     1  UNL1       -0.2256
     16 O          61.6268   89.5832   12.0768 O.3     1  UNL1       -0.2251
     17 C          62.1908   86.1512    9.1676 C.3     1  UNL1        0.1164
     18 C          62.6599   85.1768   10.2072 C.ar    1  UNL1        0.0006
     19 C          63.5230   84.0156    9.8115 C.ar    1  UNL1        0.0007
     20 C          63.9920   83.0412   10.8510 C.ar    1  UNL1        0.0398
     21 C          63.5980   83.2281   12.2863 C.ar    1  UNL1        0.1724
     22 C          62.7349   84.3894   12.6819 C.ar    1  UNL1        0.1721
     23 C          62.2658   85.3637   11.6423 C.ar    1  UNL1        0.0374
     24 O          62.3408   84.5763   14.1171 O.3     1  UNL1       -0.4684
     25 C          62.8098   83.6020   15.1566 C.3     1  UNL1        0.2526
     26 C          63.6730   82.4407   14.7609 C.3     1  UNL1        0.2526
     27 O          64.0670   82.2538   13.3258 O.3     1  UNL1       -0.4684
@<TRIPOS>BOND
     1     6     7    1
     2     7     5    1
     3     5     1    1
     4     1     2    2
     5     1     3   am
     6     3    17    1
     7    17    18    1
     8    18    19   ar
     9    19    20   ar
    10    20    21   ar
    11    21    22   ar
    12    22    23   ar
    13    22    24    1
    14    24    25    1
    15    25    26    1
    16    26    27    1
    17     7     8    1
    18     8     9    1
    19     9    10    1
    20    10    11    1
    21    11    12    1
    22    12    13    1
    23    13    14    1
    24     9    15    1
    25    15    16    1
    26    16     7    1
    27    23    18   ar
    28    14     9    1
    29    27    21    1
    30     3     4    1
@<TRIPOS>MOLECULE
*****
 27 30 0 0 0
SMALL
GASTEIGER

@<TRIPOS>ATOM
      1 C          63.2805   88.3590   16.7550 C.2     1  UNL1        0.2252
      2 O          62.8503   87.8342   18.0927 O.2     1  UNL1       -0.2750
      3 N          63.7893   87.4141   15.7070 N.am    1  UNL1       -0.3004
      4 H          64.0717   87.7585   14.8290 H       1  UNL1        0.1497
      5 C          63.2020   89.8287   16.4653 C.3     1  UNL1        0.1154
      6 C          64.6495   91.0211   15.7495 C.3     1  UNL1        0.0335
      7 C          63.4919   90.3374   15.0843 C.3     1  UNL1        0.1377
      8 C          64.0238   90.9891   13.8424 C.3     1  UNL1        0.0613
      9 C          63.1344   90.6018   12.6983 C.3     1  UNL1        0.1290
     10 C          62.1611   90.1319   11.6582 C.3     1  UNL1        0.0305
     11 C          62.3246   90.5604   10.2300 C.3     1  UNL1        0.0025
     12 C          63.4613   91.4589    9.8420 C.3     1  UNL1        0.0002
     13 C          64.4346   91.9289   10.8821 C.3     1  UNL1        0.0025
     14 C          64.2711   91.5003   12.3103 C.3     1  UNL1        0.0305
     15 O          62.0528   89.7108   13.2332 O.3     1  UNL1       -0.2256
     16 O          62.2737   89.5474   14.7078 O.3     1  UNL1       -0.2251
     17 C          63.8679   85.9445   15.9967 C.3     1  UNL1        0.1164
     18 C          63.6206   84.9498   14.9014 C.ar    1  UNL1        0.0006
     19 C          63.6565   85.3888   13.4675 C.ar    1  UNL1        0.0007
     20 C          63.4093   84.3942   12.3723 C.ar    1  UNL1        0.0398
     21 C          63.1260   82.9606   12.7109 C.ar    1  UNL1        0.1724
     22 C          63.0901   82.5216   14.1448 C.ar    1  UNL1        0.1721
     23 C          63.3374   83.5163   15.2401 C.ar    1  UNL1        0.0374
     24 O          62.8069   81.0881   14.4834 O.3     1  UNL1       -0.4684
     25 C          62.5596   80.0935   13.3882 C.3     1  UNL1        0.2526
     26 C          62.5956   80.5325   11.9543 C.3     1  UNL1        0.2526
     27 O          62.8788   81.9660   11.6156 O.3     1  UNL1       -0.4684
@<TRIPOS>BOND
     1     6     7    1
     2     7     5    1
     3     5     1    1
     4     1     2    2
     5     1     3   am
     6     3    17    1
     7    17    18    1
     8    18    19   ar
     9    19    20   ar
    10    20    21   ar
    11    21    22   ar
    12    22    23   ar
    13    22    24    1
    14    24    25    1
    15    25    26    1
    16    26    27    1
    17     7     8    1
    18     8     9    1
    19     9    10    1
    20    10    11    1
    21    11    12    1
    22    12    13    1
    23    13    14    1
    24     9    15    1
    25    15    16    1
    26    16     7    1
    27    23    18   ar
    28    14     9    1
    29    27    21    1
    30     3     4    1
@<TRIPOS>MOLECULE
*****
 27 30 0 0 0
SMALL
GASTEIGER

@<TRIPOS>ATOM
      1 C          63.1257   88.1409   16.7691 C.2     1  UNL1        0.2252
      2 O          62.8268   87.5619   18.1202 O.2     1  UNL1       -0.2750
      3 N          63.7581   87.2870   15.7104 N.am    1  UNL1       -0.3004
      4 H          63.9543   87.6669   14.8236 H       1  UNL1        0.1497
      5 C          62.7921   89.5738   16.4767 C.3     1  UNL1        0.1154
      6 C          64.3556   90.8157   16.2692 C.3     1  UNL1        0.0335
      7 C          63.3832   90.2516   15.2761 C.3     1  UNL1        0.1377
      8 C          64.1775   91.0472   14.2831 C.3     1  UNL1        0.0613
      9 C          63.5724   90.8331   12.9273 C.3     1  UNL1        0.1290
     10 C          62.8628   90.5255   11.6421 C.3     1  UNL1        0.0305
     11 C          63.3418   91.1327   10.3570 C.3     1  UNL1        0.0025
     12 C          64.5305   92.0476   10.3570 C.3     1  UNL1        0.0002
     13 C          65.2402   92.3553   11.6422 C.3     1  UNL1        0.0025
     14 C          64.7611   91.7480   12.9274 C.3     1  UNL1        0.0305
     15 O          62.4041   89.9052   13.0825 O.3     1  UNL1       -0.2256
     16 O          62.2872   89.5457   14.5341 O.3     1  UNL1       -0.2251
     17 C          64.0916   85.8541   16.0029 C.3     1  UNL1        0.1164
     18 C          63.6914   84.7786   15.0368 C.ar    1  UNL1        0.0006
     19 C          62.6257   83.7920   15.4121 C.ar    1  UNL1        0.0007
     20 C          62.2254   82.7165   14.4462 C.ar    1  UNL1        0.0398
     21 C          62.8909   82.6277   13.1047 C.ar    1  UNL1        0.1724
     22 C          63.9566   83.6143   12.7294 C.ar    1  UNL1        0.1721
     23 C          64.3568   84.6897   13.6955 C.ar    1  UNL1        0.0374
     24 O          64.6221   83.5254   11.3880 O.3     1  UNL1       -0.4684
     25 C          64.2218   82.4500   10.4221 C.3     1  UNL1        0.2526
     26 C          63.1561   81.4634   10.7974 C.3     1  UNL1        0.2526
     27 O          62.4907   81.5522   12.1388 O.3     1  UNL1       -0.4684
@<TRIPOS>BOND
     1     6     7    1
     2     7     5    1
     3     5     1    1
     4     1     2    2
     5     1     3   am
     6     3    17    1
     7    17    18    1
     8    18    19   ar
     9    19    20   ar
    10    20    21   ar
    11    21    22   ar
    12    22    23   ar
    13    22    24    1
    14    24    25    1
    15    25    26    1
    16    26    27    1
    17     7     8    1
    18     8     9    1
    19     9    10    1
    20    10    11    1
    21    11    12    1
    22    12    13    1
    23    13    14    1
    24     9    15    1
    25    15    16    1
    26    16     7    1
    27    23    18   ar
    28    14     9    1
    29    27    21    1
    30     3     4    1
@<TRIPOS>MOLECULE
*****
 27 30 0 0 0
SMALL
GASTEIGER

@<TRIPOS>ATOM
      1 C          63.3798   89.2149   13.5489 C.2     1  UNL1        0.2252
      2 O          62.5654   89.5955   14.7497 O.2     1  UNL1       -0.2750
      3 N          64.2322   87.9811   13.5811 N.am    1  UNL1       -0.3004
      4 H          64.7667   87.7313   12.7930 H       1  UNL1        0.1497
      5 C          63.3419   90.0683   12.3158 C.3     1  UNL1        0.1154
      6 C          62.3640   91.2015   10.9782 C.3     1  UNL1        0.0335
      7 C          62.4161   89.7173   11.1890 C.3     1  UNL1        0.1377
      8 C          61.4794   89.6767   10.0182 C.3     1  UNL1        0.0613
      9 C          61.1460   88.2406    9.7409 C.3     1  UNL1        0.1290
     10 C          60.9062   86.7682    9.5845 C.3     1  UNL1        0.0305
     11 C          60.0011   86.2670    8.4984 C.3     1  UNL1        0.0025
     12 C          59.3358   87.2382    7.5688 C.3     1  UNL1        0.0002
     13 C          59.5757   88.7106    7.7252 C.3     1  UNL1        0.0025
     14 C          60.4808   89.2118    8.8113 C.3     1  UNL1        0.0305
     15 O          61.8767   87.3939   10.7405 O.3     1  UNL1       -0.2256
     16 O          62.6616   88.3065   11.6354 O.3     1  UNL1       -0.2251
     17 C          64.2701   87.1278   14.8141 C.3     1  UNL1        0.1164
     18 C          63.7571   85.7189   14.7673 C.ar    1  UNL1        0.0006
     19 C          63.1141   85.1143   15.9801 C.ar    1  UNL1        0.0007
     20 C          62.6012   83.7055   15.9334 C.ar    1  UNL1        0.0398
     21 C          62.7313   82.9013   14.6738 C.ar    1  UNL1        0.1724
     22 C          63.3743   83.5060   13.4610 C.ar    1  UNL1        0.1721
     23 C          63.8873   84.9148   13.5078 C.ar    1  UNL1        0.0374
     24 O          63.5044   82.7019   12.2015 O.3     1  UNL1       -0.4684
     25 C          62.9915   81.2931   12.1548 C.3     1  UNL1        0.2526
     26 C          62.3484   80.6885   13.3676 C.3     1  UNL1        0.2526
     27 O          62.2183   81.4926   14.6271 O.3     1  UNL1       -0.4684
@<TRIPOS>BOND
     1     6     7    1
     2     7     5    1
     3     5     1    1
     4     1     2    2
     5     1     3   am
     6     3    17    1
     7    17    18    1
     8    18    19   ar
     9    19    20   ar
    10    20    21   ar
    11    21    22   ar
    12    22    23   ar
    13    22    24    1
    14    24    25    1
    15    25    26    1
    16    26    27    1
    17     7     8    1
    18     8     9    1
    19     9    10    1
    20    10    11    1
    21    11    12    1
    22    12    13    1
    23    13    14    1
    24     9    15    1
    25    15    16    1
    26    16     7    1
    27    23    18   ar
    28    14     9    1
    29    27    21    1
    30     3     4    1
@<TRIPOS>MOLECULE
*****
 27 30 0 0 0
SMALL
GASTEIGER

@<TRIPOS>ATOM
      1 C          62.9642   84.1815   15.5861 C.2     1  UNL1        0.2252
      2 O          61.7663   83.3925   15.1472 O.2     1  UNL1       -0.2750
      3 N          64.2467   84.0898   14.8136 N.am    1  UNL1       -0.3004
      4 H          65.0329   84.6077   15.1017 H       1  UNL1        0.1497
      5 C          62.8795   85.0621   16.7975 C.3     1  UNL1        0.1154
      6 C          62.5428   86.5840   18.0624 C.3     1  UNL1        0.0335
      7 C          63.0864   86.5418   16.6650 C.3     1  UNL1        0.1377
      8 C          63.1797   88.0304   16.8246 C.3     1  UNL1        0.0613
      9 C          63.7378   88.5988   15.5536 C.3     1  UNL1        0.1290
     10 C          64.3014   89.0198   14.2288 C.3     1  UNL1        0.0305
     11 C          64.5621   90.4707   13.9516 C.3     1  UNL1        0.0025
     12 C          64.2591   91.5006   14.9991 C.3     1  UNL1        0.0002
     13 C          63.6954   91.0797   16.3239 C.3     1  UNL1        0.0025
     14 C          63.4348   89.6288   16.6011 C.3     1  UNL1        0.0305
     15 O          63.9893   87.4615   14.6084 O.3     1  UNL1       -0.2256
     16 O          63.5868   86.1902   15.2953 O.3     1  UNL1       -0.2251
     17 C          64.3313   83.2093   13.6023 C.3     1  UNL1        0.1164
     18 C          63.8433   83.7103   12.2753 C.ar    1  UNL1        0.0006
     19 C          64.4340   83.1704   11.0065 C.ar    1  UNL1        0.0007
     20 C          63.9461   83.6713    9.6795 C.ar    1  UNL1        0.0398
     21 C          62.8676   84.7122    9.6212 C.ar    1  UNL1        0.1724
     22 C          62.2769   85.2521   10.8899 C.ar    1  UNL1        0.1721
     23 C          62.7649   84.7511   12.2170 C.ar    1  UNL1        0.0374
     24 O          61.1984   86.2930   10.8316 O.3     1  UNL1       -0.4684
     25 C          60.7106   86.7939    9.5046 C.3     1  UNL1        0.2526
     26 C          61.3012   86.2540    8.2359 C.3     1  UNL1        0.2526
     27 O          62.3797   85.2132    8.2942 O.3     1  UNL1       -0.4684
@<TRIPOS>BOND
     1     6     7    1
     2     7     5    1
     3     5     1    1
     4     1     2    2
     5     1     3   am
     6     3    17    1
     7    17    18    1
     8    18    19   ar
     9    19    20   ar
    10    20    21   ar
    11    21    22   ar
    12    22    23   ar
    13    22    24    1
    14    24    25    1
    15    25    26    1
    16    26    27    1
    17     7     8    1
    18     8     9    1
    19     9    10    1
    20    10    11    1
    21    11    12    1
    22    12    13    1
    23    13    14    1
    24     9    15    1
    25    15    16    1
    26    16     7    1
    27    23    18   ar
    28    14     9    1
    29    27    21    1
    30     3     4    1
@<TRIPOS>MOLECULE
*****
 27 30 0 0 0
SMALL
GASTEIGER

@<TRIPOS>ATOM
      1 C          62.3807   89.9316   11.7246 C.2     1  UNL1        0.2252
      2 O          63.0053   88.9246   12.6443 O.2     1  UNL1       -0.2750
      3 N          61.1786   89.5582   10.9089 N.am    1  UNL1       -0.3004
      4 H          60.7686   90.2191   10.3053 H       1  UNL1        0.1497
      5 C          62.9582   91.3121   11.6206 C.3     1  UNL1        0.1154
      6 C          64.7840   91.6365   10.8521 C.3     1  UNL1        0.0335
      7 C          64.2770   91.6238   12.2637 C.3     1  UNL1        0.1377
      8 C          65.7018   91.9381   12.6117 C.3     1  UNL1        0.0613
      9 C          65.7997   92.0545   14.1041 C.3     1  UNL1        0.1290
     10 C          65.7437   92.1396   15.6006 C.3     1  UNL1        0.0305
     11 C          66.9875   92.4448   16.3815 C.3     1  UNL1        0.0025
     12 C          68.2873   92.6648   15.6658 C.3     1  UNL1        0.0002
     13 C          68.3433   92.5797   14.1693 C.3     1  UNL1        0.0025
     14 C          67.0995   92.2745   13.3884 C.3     1  UNL1        0.0305
     15 O          64.4353   91.8121   14.6783 O.3     1  UNL1       -0.2256
     16 O          63.4943   91.5459   13.5409 O.3     1  UNL1       -0.2251
     17 C          60.6011   88.1777   11.0129 C.3     1  UNL1        0.1164
     18 C          61.4278   86.9877   10.6251 C.ar    1  UNL1        0.0006
     19 C          61.9936   86.8870    9.2395 C.ar    1  UNL1        0.0007
     20 C          62.8203   85.6970    8.8516 C.ar    1  UNL1        0.0398
     21 C          63.0812   84.6077    9.8493 C.ar    1  UNL1        0.1724
     22 C          62.5155   84.7084   11.2349 C.ar    1  UNL1        0.1721
     23 C          61.6887   85.8984   11.6227 C.ar    1  UNL1        0.0374
     24 O          62.7764   83.6191   12.2325 O.3     1  UNL1       -0.4684
     25 C          63.6031   82.4291   11.8446 C.3     1  UNL1        0.2526
     26 C          64.1688   82.3284   10.4591 C.3     1  UNL1        0.2526
     27 O          63.9079   83.4177    9.4614 O.3     1  UNL1       -0.4684
@<TRIPOS>BOND
     1     6     7    1
     2     7     5    1
     3     5     1    1
     4     1     2    2
     5     1     3   am
     6     3    17    1
     7    17    18    1
     8    18    19   ar
     9    19    20   ar
    10    20    21   ar
    11    21    22   ar
    12    22    23   ar
    13    22    24    1
    14    24    25    1
    15    25    26    1
    16    26    27    1
    17     7     8    1
    18     8     9    1
    19     9    10    1
    20    10    11    1
    21    11    12    1
    22    12    13    1
    23    13    14    1
    24     9    15    1
    25    15    16    1
    26    16     7    1
    27    23    18   ar
    28    14     9    1
    29    27    21    1
    30     3     4    1
@<TRIPOS>MOLECULE
*****
 27 30 0 0 0
SMALL
GASTEIGER

@<TRIPOS>ATOM
      1 C          63.6132   88.5051   16.3480 C.2     1  UNL1        0.2252
      2 O          63.1423   88.2747   17.7534 O.2     1  UNL1       -0.2750
      3 N          63.8989   87.3367   15.4517 N.am    1  UNL1       -0.3004
      4 H          64.2080   87.4879   14.5293 H       1  UNL1        0.1497
      5 C          63.7985   89.9039   15.8389 C.3     1  UNL1        0.1154
      6 C          65.0783   90.6667   14.4937 C.3     1  UNL1        0.0335
      7 C          63.6601   90.1932   14.3736 C.3     1  UNL1        0.1377
      8 C          63.8181   90.5815   12.9334 C.3     1  UNL1        0.0613
      9 C          62.5265   90.2875   12.2296 C.3     1  UNL1        0.1290
     10 C          61.1807   89.9425   11.6641 C.3     1  UNL1        0.0305
     11 C          60.8954   90.1773   10.2103 C.3     1  UNL1        0.0025
     12 C          61.9560   90.7571    9.3221 C.3     1  UNL1        0.0002
     13 C          63.3018   91.1021    9.8875 C.3     1  UNL1        0.0025
     14 C          63.5870   90.8673   11.3413 C.3     1  UNL1        0.0305
     15 O          61.5702   89.7175   13.2349 O.3     1  UNL1       -0.2256
     16 O          62.2708   89.6592   14.5600 O.3     1  UNL1       -0.2251
     17 C          63.7136   85.9380   15.9609 C.3     1  UNL1        0.1164
     18 C          63.4359   84.8205   14.9995 C.ar    1  UNL1        0.0006
     19 C          62.4664   83.7371   15.3687 C.ar    1  UNL1        0.0007
     20 C          62.1887   82.6197   14.4074 C.ar    1  UNL1        0.0398
     21 C          62.8805   82.5856   13.0768 C.ar    1  UNL1        0.1724
     22 C          63.8499   83.6691   12.7076 C.ar    1  UNL1        0.1721
     23 C          64.1276   84.7865   13.6690 C.ar    1  UNL1        0.0374
     24 O          64.5416   83.6351   11.3771 O.3     1  UNL1       -0.4684
     25 C          64.2639   82.5176   10.4158 C.3     1  UNL1        0.2526
     26 C          63.2945   81.4342   10.7850 C.3     1  UNL1        0.2526
     27 O          62.6027   81.4682   12.1155 O.3     1  UNL1       -0.4684
@<TRIPOS>BOND
     1     6     7    1
     2     7     5    1
     3     5     1    1
     4     1     2    2
     5     1     3   am
     6     3    17    1
     7    17    18    1
     8    18    19   ar
     9    19    20   ar
    10    20    21   ar
    11    21    22   ar
    12    22    23   ar
    13    22    24    1
    14    24    25    1
    15    25    26    1
    16    26    27    1
    17     7     8    1
    18     8     9    1
    19     9    10    1
    20    10    11    1
    21    11    12    1
    22    12    13    1
    23    13    14    1
    24     9    15    1
    25    15    16    1
    26    16     7    1
    27    23    18   ar
    28    14     9    1
    29    27    21    1
    30     3     4    1
@<TRIPOS>MOLECULE
*****
 27 30 0 0 0
SMALL
GASTEIGER

@<TRIPOS>ATOM
      1 C          63.8694   82.8739   12.4614 C.2     1  UNL1        0.2252
      2 O          62.5159   82.2892   12.1859 O.2     1  UNL1       -0.2750
      3 N          64.7082   83.3896   11.3299 N.am    1  UNL1       -0.3004
      4 H          65.5966   83.7734   11.5107 H       1  UNL1        0.1497
      5 C          64.3842   82.9430   13.8687 C.3     1  UNL1        0.1154
      6 C          63.4829   83.0231   15.6605 C.3     1  UNL1        0.0335
      7 C          64.0045   84.0954   14.7505 C.3     1  UNL1        0.1377
      8 C          63.5157   85.0237   15.8226 C.3     1  UNL1        0.0613
      9 C          63.8147   86.4288   15.3908 C.3     1  UNL1        0.1290
     10 C          64.1758   87.7718   14.8288 C.3     1  UNL1        0.0305
     11 C          63.8572   89.0180   15.6005 C.3     1  UNL1        0.0025
     12 C          63.1774   88.9212   16.9341 C.3     1  UNL1        0.0002
     13 C          62.8162   87.5781   17.4961 C.3     1  UNL1        0.0025
     14 C          63.1348   86.3320   16.7244 C.3     1  UNL1        0.0305
     15 O          64.4882   86.3688   14.0519 O.3     1  UNL1       -0.2256
     16 O          64.6055   84.9267   13.6561 O.3     1  UNL1       -0.2251
     17 C          64.1934   83.3205    9.9227 C.3     1  UNL1        0.1164
     18 C          63.2181   84.3481    9.4296 C.ar    1  UNL1        0.0006
     19 C          62.8777   84.4196    7.9705 C.ar    1  UNL1        0.0007
     20 C          61.9025   85.4470    7.4773 C.ar    1  UNL1        0.0398
     21 C          61.2676   86.4031    8.4433 C.ar    1  UNL1        0.1724
     22 C          61.6081   86.3316    9.9024 C.ar    1  UNL1        0.1721
     23 C          62.5833   85.3041   10.3955 C.ar    1  UNL1        0.0374
     24 O          60.9733   87.2876   10.8684 O.3     1  UNL1       -0.4684
     25 C          59.9981   88.3150   10.3752 C.3     1  UNL1        0.2526
     26 C          59.6576   88.3865    8.9161 C.3     1  UNL1        0.2526
     27 O          60.2924   87.4306    7.9502 O.3     1  UNL1       -0.4684
@<TRIPOS>BOND
     1     6     7    1
     2     7     5    1
     3     5     1    1
     4     1     2    2
     5     1     3   am
     6     3    17    1
     7    17    18    1
     8    18    19   ar
     9    19    20   ar
    10    20    21   ar
    11    21    22   ar
    12    22    23   ar
    13    22    24    1
    14    24    25    1
    15    25    26    1
    16    26    27    1
    17     7     8    1
    18     8     9    1
    19     9    10    1
    20    10    11    1
    21    11    12    1
    22    12    13    1
    23    13    14    1
    24     9    15    1
    25    15    16    1
    26    16     7    1
    27    23    18   ar
    28    14     9    1
    29    27    21    1
    30     3     4    1
