@<TRIPOS>MOLECULE
*****
 27 30 0 0 0
SMALL
GASTEIGER

@<TRIPOS>ATOM
      1 C          63.6971   89.0880   13.5223 C.2     1  UNL1       -0.0246
      2 C          63.9212   87.6192   13.7284 C.2     1  UNL1       -0.0421
      3 C          63.3052   86.8896   12.5716 C.3     1  UNL1        0.0480
      4 C          62.7005   87.9074   11.6505 C.ar    1  UNL1       -0.0184
      5 C          61.9607   87.7725   10.3527 C.ar    1  UNL1       -0.0040
      6 C          61.4630   88.9964    9.6425 C.ar    1  UNL1       -0.0003
      7 C          61.7052   90.3551   10.2301 C.ar    1  UNL1       -0.0000
      8 C          62.4451   90.4900   11.5279 C.ar    1  UNL1       -0.0006
      9 C          62.9428   89.2661   12.2381 C.ar    1  UNL1       -0.0079
     10 C          63.5809   90.2869   15.8244 C.3     1  UNL1        0.0111
     11 C          64.1483   90.1859   14.4394 C.3     1  UNL1        0.0634
     12 C          65.1667   91.1828   13.9717 C.ar    1  UNL1        0.0818
     13 C          66.5492   91.1720   14.5536 C.ar    1  UNL1        0.1139
     14 N          67.5676   92.1690   14.0858 N.ar    1  UNL1       -0.2394
     15 C          67.2037   93.1768   13.0361 C.ar    1  UNL1        0.1195
     16 C          65.8212   93.1876   12.4541 C.ar    1  UNL1        0.1191
     17 N          64.8027   92.1906   12.9219 N.ar    1  UNL1       -0.2446
     18 C          64.6357   86.9904   14.8878 C.3     1  UNL1        0.0394
     19 C          64.3105   85.5842   15.2959 C.3     1  UNL1        0.0769
     20 N          62.9967   85.2784   15.9521 N.3     1  UNL1       -0.2634
     21 C          62.5752   86.0366   17.1759 C.3     1  UNL1        0.0900
     22 C          62.1046   84.2145   15.3846 C.3     1  UNL1        0.1587
     23 C          62.6358   83.2598   14.3569 C.ar    1  UNL1        0.2223
     24 N          63.3270   81.9582   14.6364 N.ar    1  UNL1       -0.2092
     25 C          63.6875   81.3330   13.3214 C.ar    1  UNL1        0.1424
     26 C          63.2191   82.2482   12.2292 C.ar    1  UNL1        0.2018
     27 O          62.5691   83.4390   12.8691 O.2     1  UNL1       -0.4338
@<TRIPOS>BOND
     1    11    10    1
     2    11     1    1
     3     1     2    2
     4     2    18    1
     5    18    19    1
     6    19    20    1
     7    20    21    1
     8    20    22    1
     9    22    23    1
    10    23    24   ar
    11    24    25   ar
    12    25    26   ar
    13    26    27   ar
    14     2     3    1
    15     3     4    1
    16     4     5   ar
    17     5     6   ar
    18     6     7   ar
    19     7     8   ar
    20     8     9   ar
    21    11    12    1
    22    12    13   ar
    23    13    14   ar
    24    14    15   ar
    25    15    16   ar
    26    16    17   ar
    27     9     1    1
    28    17    12   ar
    29    27    23   ar
    30     9     4   ar
@<TRIPOS>MOLECULE
*****
 27 30 0 0 0
SMALL
GASTEIGER

@<TRIPOS>ATOM
      1 C          61.4126   88.1125   10.8311 C.2     1  UNL1       -0.0246
      2 C          62.1812   86.8720   11.1782 C.2     1  UNL1       -0.0421
      3 C          61.9472   85.8631   10.0931 C.3     1  UNL1        0.0480
      4 C          61.0342   86.4800    9.0754 C.ar    1  UNL1       -0.0184
      5 C          60.4610   85.9555    7.7924 C.ar    1  UNL1       -0.0040
      6 C          59.5573   86.8213    6.9654 C.ar    1  UNL1       -0.0003
      7 C          59.2269   88.2115    7.4216 C.ar    1  UNL1       -0.0000
      8 C          59.8001   88.7360    8.7046 C.ar    1  UNL1       -0.0006
      9 C          60.7038   87.8703    9.5315 C.ar    1  UNL1       -0.0079
     10 C          60.0984   89.7579   12.3529 C.3     1  UNL1        0.0111
     11 C          61.3619   89.3738   11.6413 C.3     1  UNL1        0.0634
     12 C          62.5745   90.2511   11.7401 C.ar    1  UNL1        0.0818
     13 C          63.0639   90.9931   10.5319 C.ar    1  UNL1        0.1139
     14 N          64.2765   91.8705   10.6307 N.ar    1  UNL1       -0.2394
     15 C          64.9998   92.0058   11.9378 C.ar    1  UNL1        0.1195
     16 C          64.5104   91.2638   13.1461 C.ar    1  UNL1        0.1191
     17 N          63.2978   90.3865   13.0473 N.ar    1  UNL1       -0.2446
     18 C          63.0338   86.6749   12.3964 C.3     1  UNL1        0.0394
     19 C          63.2651   85.2941   12.9347 C.3     1  UNL1        0.0769
     20 N          64.0179   85.1059   14.2184 N.3     1  UNL1       -0.2634
     21 C          64.5696   86.2961   14.9458 C.3     1  UNL1        0.0900
     22 C          64.2192   83.7274   14.7746 C.3     1  UNL1        0.1587
     23 C          63.3706   82.5907   14.2870 C.ar    1  UNL1        0.2223
     24 N          63.8138   81.4901   13.3692 N.ar    1  UNL1       -0.2092
     25 C          62.6470   80.5741   13.1466 C.ar    1  UNL1        0.1424
     26 C          61.4827   81.1085   13.9269 C.ar    1  UNL1        0.2018
     27 O          61.9300   82.3548   14.6317 O.2     1  UNL1       -0.4338
@<TRIPOS>BOND
     1    11    10    1
     2    11     1    1
     3     1     2    2
     4     2    18    1
     5    18    19    1
     6    19    20    1
     7    20    21    1
     8    20    22    1
     9    22    23    1
    10    23    24   ar
    11    24    25   ar
    12    25    26   ar
    13    26    27   ar
    14     2     3    1
    15     3     4    1
    16     4     5   ar
    17     5     6   ar
    18     6     7   ar
    19     7     8   ar
    20     8     9   ar
    21    11    12    1
    22    12    13   ar
    23    13    14   ar
    24    14    15   ar
    25    15    16   ar
    26    16    17   ar
    27     9     1    1
    28    17    12   ar
    29    27    23   ar
    30     9     4   ar
@<TRIPOS>MOLECULE
*****
 27 30 0 0 0
SMALL
GASTEIGER

@<TRIPOS>ATOM
      1 C          66.1022   92.3919   11.8760 C.2     1  UNL1       -0.0246
      2 C          64.7665   91.7120   11.8167 C.2     1  UNL1       -0.0421
      3 C          64.3163   91.4513   13.2236 C.3     1  UNL1        0.0480
      4 C          65.3737   91.9702   14.1524 C.ar    1  UNL1       -0.0184
      5 C          65.4741   91.9884   15.6489 C.ar    1  UNL1       -0.0040
      6 C          66.6783   92.5880   16.3124 C.ar    1  UNL1       -0.0003
      7 C          67.7821   93.1694   15.4795 C.ar    1  UNL1       -0.0000
      8 C          67.6817   93.1511   13.9830 C.ar    1  UNL1       -0.0006
      9 C          66.4775   92.5515   13.3195 C.ar    1  UNL1       -0.0079
     10 C          67.9867   91.9370   10.1462 C.3     1  UNL1        0.0111
     11 C          66.9192   92.8346   10.6984 C.3     1  UNL1        0.0634
     12 C          66.6688   94.1748   10.0731 C.ar    1  UNL1        0.0818
     13 C          67.5312   94.6468    8.9402 C.ar    1  UNL1        0.1139
     14 N          67.2808   95.9870    8.3148 N.ar    1  UNL1       -0.2394
     15 C          66.1679   96.8553    8.8223 C.ar    1  UNL1        0.1195
     16 C          65.3054   96.3833    9.9552 C.ar    1  UNL1        0.1191
     17 N          65.5559   95.0431   10.5806 N.ar    1  UNL1       -0.2446
     18 C          64.0132   91.3553   10.5695 C.3     1  UNL1        0.0394
     19 C          62.5184   91.2362   10.6044 C.3     1  UNL1        0.0769
     20 N          61.8774   89.8951   10.8057 N.3     1  UNL1       -0.2634
     21 C          62.6607   88.7744   11.4227 C.3     1  UNL1        0.0900
     22 C          60.4531   89.6746   10.3902 C.3     1  UNL1        0.1587
     23 C          60.1210   88.6121    9.3848 C.ar    1  UNL1        0.2223
     24 N          59.5914   88.8428    8.0005 N.ar    1  UNL1       -0.2092
     25 C          59.4033   87.5056    7.3473 C.ar    1  UNL1        0.1424
     26 C          59.8166   86.4485    8.3280 C.ar    1  UNL1        0.2018
     27 O          60.2602   87.1324    9.5872 O.2     1  UNL1       -0.4338
@<TRIPOS>BOND
     1    11    10    1
     2    11     1    1
     3     1     2    2
     4     2    18    1
     5    18    19    1
     6    19    20    1
     7    20    21    1
     8    20    22    1
     9    22    23    1
    10    23    24   ar
    11    24    25   ar
    12    25    26   ar
    13    26    27   ar
    14     2     3    1
    15     3     4    1
    16     4     5   ar
    17     5     6   ar
    18     6     7   ar
    19     7     8   ar
    20     8     9   ar
    21    11    12    1
    22    12    13   ar
    23    13    14   ar
    24    14    15   ar
    25    15    16   ar
    26    16    17   ar
    27     9     1    1
    28    17    12   ar
    29    27    23   ar
    30     9     4   ar
@<TRIPOS>MOLECULE
*****
 27 30 0 0 0
SMALL
GASTEIGER

@<TRIPOS>ATOM
      1 C          63.1423   90.3664   12.6599 C.2     1  UNL1       -0.0246
      2 C          63.4122   90.1504   14.1196 C.2     1  UNL1       -0.0421
      3 C          64.6295   90.9455   14.4884 C.3     1  UNL1        0.0480
      4 C          65.1119   91.6528   13.2567 C.ar    1  UNL1       -0.0184
      5 C          66.2694   92.5765   13.0182 C.ar    1  UNL1       -0.0040
      6 C          66.5077   93.1423   11.6496 C.ar    1  UNL1       -0.0003
      7 C          65.5885   92.7844   10.5196 C.ar    1  UNL1       -0.0000
      8 C          64.4310   91.8606   10.7581 C.ar    1  UNL1       -0.0006
      9 C          64.1927   91.2949   12.1267 C.ar    1  UNL1       -0.0079
     10 C          60.7437   90.5247   11.6740 C.3     1  UNL1        0.0111
     11 C          62.0191   89.7602   11.8719 C.3     1  UNL1        0.0634
     12 C          62.1711   88.3896   11.2818 C.ar    1  UNL1        0.0818
     13 C          61.9148   88.1696    9.8203 C.ar    1  UNL1        0.1139
     14 N          62.0668   86.7990    9.2302 N.ar    1  UNL1       -0.2394
     15 C          62.4752   85.6483   10.1015 C.ar    1  UNL1        0.1195
     16 C          62.7315   85.8683   11.5630 C.ar    1  UNL1        0.1191
     17 N          62.5795   87.2389   12.1531 N.ar    1  UNL1       -0.2446
     18 C          62.6063   89.2904   15.0475 C.3     1  UNL1        0.0394
     19 C          63.2298   88.7490   16.2996 C.3     1  UNL1        0.0769
     20 N          63.3710   87.2674   16.4871 N.3     1  UNL1       -0.2634
     21 C          62.7217   86.5946   17.6601 C.3     1  UNL1        0.0900
     22 C          64.1615   86.4587   15.5017 C.3     1  UNL1        0.1587
     23 C          63.6875   85.0932   15.1005 C.ar    1  UNL1        0.2223
     24 N          64.5582   83.9443   14.6859 N.ar    1  UNL1       -0.2092
     25 C          63.6685   82.7779   14.3727 C.ar    1  UNL1        0.1424
     26 C          62.2480   83.2060   14.5936 C.ar    1  UNL1        0.2018
     27 O          62.2598   84.6370   15.0435 O.2     1  UNL1       -0.4338
@<TRIPOS>BOND
     1    11    10    1
     2    11     1    1
     3     1     2    2
     4     2    18    1
     5    18    19    1
     6    19    20    1
     7    20    21    1
     8    20    22    1
     9    22    23    1
    10    23    24   ar
    11    24    25   ar
    12    25    26   ar
    13    26    27   ar
    14     2     3    1
    15     3     4    1
    16     4     5   ar
    17     5     6   ar
    18     6     7   ar
    19     7     8   ar
    20     8     9   ar
    21    11    12    1
    22    12    13   ar
    23    13    14   ar
    24    14    15   ar
    25    15    16   ar
    26    16    17   ar
    27     9     1    1
    28    17    12   ar
    29    27    23   ar
    30     9     4   ar
@<TRIPOS>MOLECULE
*****
 27 30 0 0 0
SMALL
GASTEIGER

@<TRIPOS>ATOM
      1 C          63.5361   89.1845   12.6050 C.2     1  UNL1       -0.0246
      2 C          63.3811   90.3483   11.6714 C.2     1  UNL1       -0.0421
      3 C          62.6466   89.8710   10.4538 C.3     1  UNL1        0.0480
      4 C          62.3477   88.4122   10.6347 C.ar    1  UNL1       -0.0184
      5 C          61.6460   87.4155    9.7607 C.ar    1  UNL1       -0.0040
      6 C          61.4941   85.9945   10.2162 C.ar    1  UNL1       -0.0003
      7 C          62.0439   85.5702   11.5457 C.ar    1  UNL1       -0.0000
      8 C          62.7456   86.5669   12.4198 C.ar    1  UNL1       -0.0006
      9 C          62.8975   87.9880   11.9643 C.ar    1  UNL1       -0.0079
     10 C          65.2552   90.2491   14.2364 C.3     1  UNL1        0.0111
     11 C          64.2113   89.2123   13.9442 C.3     1  UNL1        0.0634
     12 C          63.8426   88.2034   14.9911 C.ar    1  UNL1        0.0818
     13 C          63.0338   88.6210   16.1833 C.ar    1  UNL1        0.1139
     14 N          62.6652   87.6121   17.2303 N.ar    1  UNL1       -0.2394
     15 C          63.1053   86.1855   17.0851 C.ar    1  UNL1        0.1195
     16 C          63.9142   85.7678   15.8928 C.ar    1  UNL1        0.1191
     17 N          64.2828   86.7768   14.8459 N.ar    1  UNL1       -0.2446
     18 C          63.8739   91.7442   11.9131 C.3     1  UNL1        0.0394
     19 C          64.7200   92.4300   10.8817 C.3     1  UNL1        0.0769
     20 N          66.0767   92.9523   11.2512 N.3     1  UNL1       -0.2634
     21 C          67.2804   92.5429   10.4551 C.3     1  UNL1        0.0900
     22 C          66.2298   93.8840   12.4167 C.3     1  UNL1        0.1587
     23 C          66.7875   93.3774   13.7137 C.ar    1  UNL1        0.2223
     24 N          68.1133   92.7007   13.8990 N.ar    1  UNL1       -0.2092
     25 C          68.2626   92.3636   15.3530 C.ar    1  UNL1        0.1424
     26 C          67.0290   92.8320   16.0664 C.ar    1  UNL1        0.2018
     27 O          66.1174   93.4585   15.0532 O.2     1  UNL1       -0.4338
@<TRIPOS>BOND
     1    11    10    1
     2    11     1    1
     3     1     2    2
     4     2    18    1
     5    18    19    1
     6    19    20    1
     7    20    21    1
     8    20    22    1
     9    22    23    1
    10    23    24   ar
    11    24    25   ar
    12    25    26   ar
    13    26    27   ar
    14     2     3    1
    15     3     4    1
    16     4     5   ar
    17     5     6   ar
    18     6     7   ar
    19     7     8   ar
    20     8     9   ar
    21    11    12    1
    22    12    13   ar
    23    13    14   ar
    24    14    15   ar
    25    15    16   ar
    26    16    17   ar
    27     9     1    1
    28    17    12   ar
    29    27    23   ar
    30     9     4   ar
@<TRIPOS>MOLECULE
*****
 27 30 0 0 0
SMALL
GASTEIGER

@<TRIPOS>ATOM
      1 C          62.9515   85.4015   11.9424 C.2     1  UNL1       -0.0246
      2 C          63.4940   86.1827   13.1023 C.2     1  UNL1       -0.0421
      3 C          63.8677   85.2104   14.1817 C.3     1  UNL1        0.0480
      4 C          63.5561   83.8283   13.6888 C.ar    1  UNL1       -0.0184
      5 C          63.7149   82.4776   14.3215 C.ar    1  UNL1       -0.0040
      6 C          63.3074   81.2450   13.5701 C.ar    1  UNL1       -0.0003
      7 C          62.7412   81.3631   12.1861 C.ar    1  UNL1       -0.0000
      8 C          62.5825   82.7139   11.5535 C.ar    1  UNL1       -0.0006
      9 C          62.9899   83.9465   12.3048 C.ar    1  UNL1       -0.0079
     10 C          62.7445   85.2674    9.3560 C.3     1  UNL1        0.0111
     11 C          62.4574   85.9748   10.6473 C.3     1  UNL1        0.0634
     12 C          61.6763   87.2552   10.6434 C.ar    1  UNL1        0.0818
     13 C          62.0721   88.3725    9.7241 C.ar    1  UNL1        0.1139
     14 N          61.2909   89.6530    9.7203 N.ar    1  UNL1       -0.2394
     15 C          60.1139   89.8163   10.6356 C.ar    1  UNL1        0.1195
     16 C          59.7179   88.6990   11.5549 C.ar    1  UNL1        0.1191
     17 N          60.4992   87.4185   11.5587 N.ar    1  UNL1       -0.2446
     18 C          63.6376   87.6742   13.1709 C.3     1  UNL1        0.0394
     19 C          64.2208   88.3161   14.3948 C.3     1  UNL1        0.0769
     20 N          63.7716   89.6858   14.8096 N.3     1  UNL1       -0.2634
     21 C          63.4282   89.9602   16.2438 C.3     1  UNL1        0.0900
     22 C          63.6659   90.7812   13.7904 C.3     1  UNL1        0.1587
     23 C          64.7745   91.7814   13.6465 C.ar    1  UNL1        0.2223
     24 N          65.5207   92.4381   14.7698 N.ar    1  UNL1       -0.2092
     25 C          66.5389   93.3631   14.1716 C.ar    1  UNL1        0.1424
     26 C          66.4220   93.2779   12.6786 C.ar    1  UNL1        0.2018
     27 O          65.3315   92.3004   12.3541 O.2     1  UNL1       -0.4338
@<TRIPOS>BOND
     1    11    10    1
     2    11     1    1
     3     1     2    2
     4     2    18    1
     5    18    19    1
     6    19    20    1
     7    20    21    1
     8    20    22    1
     9    22    23    1
    10    23    24   ar
    11    24    25   ar
    12    25    26   ar
    13    26    27   ar
    14     2     3    1
    15     3     4    1
    16     4     5   ar
    17     5     6   ar
    18     6     7   ar
    19     7     8   ar
    20     8     9   ar
    21    11    12    1
    22    12    13   ar
    23    13    14   ar
    24    14    15   ar
    25    15    16   ar
    26    16    17   ar
    27     9     1    1
    28    17    12   ar
    29    27    23   ar
    30     9     4   ar
@<TRIPOS>MOLECULE
*****
 27 30 0 0 0
SMALL
GASTEIGER

@<TRIPOS>ATOM
      1 C          63.5304   87.0861   13.1056 C.2     1  UNL1       -0.0246
      2 C          63.6872   88.5640   13.3082 C.2     1  UNL1       -0.0421
      3 C          63.0269   89.2623   12.1565 C.3     1  UNL1        0.0480
      4 C          62.4621   88.2160   11.2421 C.ar    1  UNL1       -0.0184
      5 C          61.7047   88.3142    9.9511 C.ar    1  UNL1       -0.0040
      6 C          61.2585   87.0674    9.2467 C.ar    1  UNL1       -0.0003
      7 C          61.5697   85.7223    9.8333 C.ar    1  UNL1       -0.0000
      8 C          62.3271   85.6241   11.1243 C.ar    1  UNL1       -0.0006
      9 C          62.7733   86.8710   11.8287 C.ar    1  UNL1       -0.0079
     10 C          64.9445   86.3669   15.1632 C.3     1  UNL1        0.0111
     11 C          64.0411   86.0118   14.0194 C.3     1  UNL1        0.0634
     12 C          63.6486   84.5825   13.7897 C.ar    1  UNL1        0.0818
     13 C          62.4553   84.0096   14.4952 C.ar    1  UNL1        0.1139
     14 N          62.0628   82.5803   14.2654 N.ar    1  UNL1       -0.2394
     15 C          62.8636   81.7237   13.3301 C.ar    1  UNL1        0.1195
     16 C          64.0569   82.2964   12.6244 C.ar    1  UNL1        0.1191
     17 N          64.4494   83.7258   12.8542 N.ar    1  UNL1       -0.2446
     18 C          64.3821   89.2272   14.4603 C.3     1  UNL1        0.0394
     19 C          63.9837   90.6108   14.8807 C.3     1  UNL1        0.0769
     20 N          65.0333   91.6038   15.2836 N.3     1  UNL1       -0.2634
     21 C          64.9011   92.3515   16.5773 C.3     1  UNL1        0.0900
     22 C          66.2150   91.8490   14.3930 C.3     1  UNL1        0.1587
     23 C          66.0414   92.6004   13.1064 C.ar    1  UNL1        0.2223
     24 N          66.5461   93.9832   12.8180 N.ar    1  UNL1       -0.2092
     25 C          66.1493   94.3384   11.4157 C.ar    1  UNL1        0.1424
     26 C          65.3993   93.1751   10.8375 C.ar    1  UNL1        0.2018
     27 O          65.3327   92.1010   11.8824 O.2     1  UNL1       -0.4338
@<TRIPOS>BOND
     1    11    10    1
     2    11     1    1
     3     1     2    2
     4     2    18    1
     5    18    19    1
     6    19    20    1
     7    20    21    1
     8    20    22    1
     9    22    23    1
    10    23    24   ar
    11    24    25   ar
    12    25    26   ar
    13    26    27   ar
    14     2     3    1
    15     3     4    1
    16     4     5   ar
    17     5     6   ar
    18     6     7   ar
    19     7     8   ar
    20     8     9   ar
    21    11    12    1
    22    12    13   ar
    23    13    14   ar
    24    14    15   ar
    25    15    16   ar
    26    16    17   ar
    27     9     1    1
    28    17    12   ar
    29    27    23   ar
    30     9     4   ar
@<TRIPOS>MOLECULE
*****
 27 30 0 0 0
SMALL
GASTEIGER

@<TRIPOS>ATOM
      1 C          62.2925   86.5098   10.8605 C.2     1  UNL1       -0.0246
      2 C          62.5642   87.7814   11.6084 C.2     1  UNL1       -0.0421
      3 C          61.7535   88.8734   10.9758 C.3     1  UNL1        0.0480
      4 C          60.9808   88.2768    9.8369 C.ar    1  UNL1       -0.0184
      5 C          60.0170   88.8750    8.8555 C.ar    1  UNL1       -0.0040
      6 C          59.3863   88.0123    7.8029 C.ar    1  UNL1       -0.0003
      7 C          59.7194   86.5515    7.7317 C.ar    1  UNL1       -0.0000
      8 C          60.6833   85.9534    8.7131 C.ar    1  UNL1       -0.0006
      9 C          61.3140   86.8160    9.7657 C.ar    1  UNL1       -0.0079
     10 C          63.3092   84.2679   10.0296 C.3     1  UNL1        0.0111
     11 C          62.8938   85.1677   11.1557 C.3     1  UNL1        0.0634
     12 C          63.0799   84.7253   12.5767 C.ar    1  UNL1        0.0818
     13 C          64.3804   84.1151   13.0083 C.ar    1  UNL1        0.1139
     14 N          64.5664   83.6727   14.4294 N.ar    1  UNL1       -0.2394
     15 C          63.4518   83.8404   15.4191 C.ar    1  UNL1        0.1195
     16 C          62.1512   84.4505   14.9877 C.ar    1  UNL1        0.1191
     17 N          61.9652   84.8930   13.5665 N.ar    1  UNL1       -0.2446
     18 C          63.4848   87.9341   12.7828 C.3     1  UNL1        0.0394
     19 C          63.8108   89.3010   13.3075 C.3     1  UNL1        0.0769
     20 N          63.9077   89.5333   14.7862 N.3     1  UNL1       -0.2634
     21 C          63.5785   88.4255   15.7426 C.3     1  UNL1        0.0900
     22 C          64.3339   90.8732   15.3086 C.3     1  UNL1        0.1587
     23 C          65.4570   91.6141   14.6455 C.ar    1  UNL1        0.2223
     24 N          66.9215   91.3633   14.8512 N.ar    1  UNL1       -0.2092
     25 C          67.6824   92.3301   13.9931 C.ar    1  UNL1        0.1424
     26 C          66.6882   93.1784   13.2570 C.ar    1  UNL1        0.2018
     27 O          65.3128   92.7359   13.6602 O.2     1  UNL1       -0.4338
@<TRIPOS>BOND
     1    11    10    1
     2    11     1    1
     3     1     2    2
     4     2    18    1
     5    18    19    1
     6    19    20    1
     7    20    21    1
     8    20    22    1
     9    22    23    1
    10    23    24   ar
    11    24    25   ar
    12    25    26   ar
    13    26    27   ar
    14     2     3    1
    15     3     4    1
    16     4     5   ar
    17     5     6   ar
    18     6     7   ar
    19     7     8   ar
    20     8     9   ar
    21    11    12    1
    22    12    13   ar
    23    13    14   ar
    24    14    15   ar
    25    15    16   ar
    26    16    17   ar
    27     9     1    1
    28    17    12   ar
    29    27    23   ar
    30     9     4   ar
@<TRIPOS>MOLECULE
*****
 27 30 0 0 0
SMALL
GASTEIGER

@<TRIPOS>ATOM
      1 C          63.0610   86.5955   12.4476 C.2     1  UNL1       -0.0246
      2 C          63.5148   87.9518   12.8998 C.2     1  UNL1       -0.0421
      3 C          62.9591   88.9680   11.9467 C.3     1  UNL1        0.0480
      4 C          62.1618   88.2398   10.9055 C.ar    1  UNL1       -0.0184
      5 C          61.3866   88.7224    9.7155 C.ar    1  UNL1       -0.0040
      6 C          60.6744   87.7388    8.8352 C.ar    1  UNL1       -0.0003
      7 C          60.7374   86.2724    9.1448 C.ar    1  UNL1       -0.0000
      8 C          61.5127   85.7898   10.3347 C.ar    1  UNL1       -0.0006
      9 C          62.2248   86.7734   11.2151 C.ar    1  UNL1       -0.0079
     10 C          63.6926   85.2512   14.5794 C.3     1  UNL1        0.0111
     11 C          63.3863   85.2903   13.1114 C.3     1  UNL1        0.0634
     12 C          63.4054   84.0242   12.3074 C.ar    1  UNL1        0.0818
     13 C          62.6298   82.8279   12.7737 C.ar    1  UNL1        0.1139
     14 N          62.6488   81.5617   11.9696 N.ar    1  UNL1       -0.2394
     15 C          63.4435   81.4918   10.6994 C.ar    1  UNL1        0.1195
     16 C          64.2191   82.6880   10.2330 C.ar    1  UNL1        0.1191
     17 N          64.2000   83.9542   11.0371 N.ar    1  UNL1       -0.2446
     18 C          64.3736   88.2411   14.0951 C.3     1  UNL1        0.0394
     19 C          64.6202   89.6596   14.5158 C.3     1  UNL1        0.0769
     20 N          63.9603   90.2017   15.7489 N.3     1  UNL1       -0.2634
     21 C          63.0771   89.3167   16.5776 C.3     1  UNL1        0.0900
     22 C          64.1837   91.6287   16.1533 C.3     1  UNL1        0.1587
     23 C          65.4160   92.3531   15.6988 C.ar    1  UNL1        0.2223
     24 N          66.6196   92.6592   16.5400 N.ar    1  UNL1       -0.2092
     25 C          67.6086   93.3937   15.6843 C.ar    1  UNL1        0.1424
     26 C          67.0163   93.5416   14.3142 C.ar    1  UNL1        0.2018
     27 O          65.6612   92.8985   14.3231 O.2     1  UNL1       -0.4338
@<TRIPOS>BOND
     1    11    10    1
     2    11     1    1
     3     1     2    2
     4     2    18    1
     5    18    19    1
     6    19    20    1
     7    20    21    1
     8    20    22    1
     9    22    23    1
    10    23    24   ar
    11    24    25   ar
    12    25    26   ar
    13    26    27   ar
    14     2     3    1
    15     3     4    1
    16     4     5   ar
    17     5     6   ar
    18     6     7   ar
    19     7     8   ar
    20     8     9   ar
    21    11    12    1
    22    12    13   ar
    23    13    14   ar
    24    14    15   ar
    25    15    16   ar
    26    16    17   ar
    27     9     1    1
    28    17    12   ar
    29    27    23   ar
    30     9     4   ar
