@<TRIPOS>MOLECULE
*****
 40 43 0 0 0
SMALL
GASTEIGER

@<TRIPOS>ATOM
      1 C          63.9708   86.4373   15.6761 C.ar    1  UNL1        0.0611
      2 C          63.1379   86.0897   16.8742 C.ar    1  UNL1        0.1037
      3 N          62.6281   87.3680   17.4709 N.ar    1  UNL1       -0.2269
      4 C          63.1459   88.5056   16.6416 C.ar    1  UNL1        0.1407
      5 N          62.9690   89.9909   16.7532 N.ar    1  UNL1       -0.3374
      6 C          63.6220   90.9010   15.7556 C.ar    1  UNL1        0.0734
      7 C          64.4518   90.3258   14.6463 C.ar    1  UNL1        0.0171
      8 C          64.6287   88.8405   14.5347 C.ar    1  UNL1        0.0046
      9 C          63.9758   87.9304   15.5323 C.ar    1  UNL1        0.0386
     10 H          62.4244   90.3685   17.4813 H       1  UNL1        0.1674
     11 C          65.1048   91.2360   13.6486 C.ar    1  UNL1        0.0015
     12 C          64.4113   91.5538   12.3571 C.ar    1  UNL1        0.0014
     13 C          65.0643   92.4640   11.3594 C.ar    1  UNL1        0.0199
     14 C          66.4107   93.0563   11.6534 C.ar    1  UNL1        0.1219
     15 C          67.1041   92.7385   12.9450 C.ar    1  UNL1        0.0199
     16 C          66.4511   91.8284   13.9426 C.ar    1  UNL1        0.0014
     17 S          67.0636   93.9665   10.6558 S.O2    1  UNL1        0.0603
     18 O          65.9800   94.9809   10.8720 O.2     1  UNL1       -0.1530
     19 O          68.1472   92.9521   10.4395 O.2     1  UNL1       -0.1530
     20 N          67.7166   94.8766    9.6582 N.3     1  UNL1       -0.1779
     21 C          67.0007   95.2362    8.3900 C.3     1  UNL1        0.1102
     22 H          68.5940   94.4336    9.3855 H       1  UNL1        0.1488
     23 C          64.6751   85.4629   14.7792 C.2     1  UNL1        0.2015
     24 O          66.1612   85.2878   14.8820 O.2     1  UNL1       -0.2864
     25 C          62.5454   84.5331   11.5619 C.ar    1  UNL1        0.0920
     26 C          62.3293   83.0648   11.7797 C.ar    1  UNL1        0.0204
     27 C          62.8951   82.3959   12.9972 C.ar    1  UNL1        0.0312
     28 C          63.6770   83.1952   13.9970 C.ar    1  UNL1        0.1454
     29 F          64.2428   82.5263   15.2146 F       1  UNL1       -0.2040
     30 C          63.8931   84.6635   13.7793 C.ar    1  UNL1        0.0951
     31 C          63.3273   85.3324   12.5618 C.ar    1  UNL1        0.1598
     32 F          63.5435   86.8007   12.3441 F       1  UNL1       -0.2026
     33 N          61.9796   85.2021   10.3444 N.pl3   1  UNL1       -0.2166
     34 H          61.8314   84.6825    9.5214 H       1  UNL1        0.1734
     35 S          61.6397   86.6626   10.3808 S.O2    1  UNL1        0.0540
     36 O          62.4743   86.8874    9.1549 O.2     1  UNL1       -0.1545
     37 O          60.8051   86.4377   11.6067 O.2     1  UNL1       -0.1545
     38 C          61.2997   88.1230   10.4173 C.3     1  UNL1        0.1724
     39 C          62.1311   90.5566   10.0471 C.3     1  UNL1        0.0019
     40 C          62.3943   89.1464   10.4856 C.3     1  UNL1        0.0273
@<TRIPOS>BOND
     1    39    40    1
     2    40    38    1
     3    38    35    1
     4    35    36    2
     5    35    37    2
     6    35    33    1
     7    33    25    1
     8    25    26   ar
     9    26    27   ar
    10    27    28   ar
    11    28    29    1
    12    28    30   ar
    13    30    23    1
    14    23    24    2
    15    23     1    1
    16     1     2   ar
    17     2     3   ar
    18     3     4   ar
    19     4     5   ar
    20     5     6   ar
    21     6     7   ar
    22     7    11    1
    23    11    12   ar
    24    12    13   ar
    25    13    14   ar
    26    14    17    1
    27    17    18    2
    28    17    19    2
    29    17    20    1
    30    20    21    1
    31    14    15   ar
    32    15    16   ar
    33     7     8   ar
    34     8     9   ar
    35    30    31   ar
    36    31    32    1
    37    31    25   ar
    38     9     1   ar
    39     9     4    1
    40    16    11   ar
    41    33    34    1
    42     5    10    1
    43    20    22    1
@<TRIPOS>MOLECULE
*****
 40 43 0 0 0
SMALL
GASTEIGER

@<TRIPOS>ATOM
      1 C          61.5370   86.3813    9.2682 C.ar    1  UNL1        0.0611
      2 C          60.1718   86.1887    8.6772 C.ar    1  UNL1        0.1037
      3 N          59.3742   87.4320    8.9382 N.ar    1  UNL1       -0.2269
      4 C          60.2465   88.3930    9.6904 C.ar    1  UNL1        0.1407
      5 N          59.9962   89.7754   10.2159 N.ar    1  UNL1       -0.3374
      6 C          61.0827   90.5084   10.9454 C.ar    1  UNL1        0.0734
      7 C          62.4194   89.8590   11.1494 C.ar    1  UNL1        0.0171
      8 C          62.6696   88.4766   10.6238 C.ar    1  UNL1        0.0046
      9 C          61.5831   87.7436    9.8943 C.ar    1  UNL1        0.0386
     10 H          59.1189   90.2016   10.0821 H       1  UNL1        0.1674
     11 C          63.5059   90.5922   11.8789 C.ar    1  UNL1        0.0015
     12 C          63.8395   90.2240   13.2942 C.ar    1  UNL1        0.0014
     13 C          64.9260   90.9571   14.0238 C.ar    1  UNL1        0.0199
     14 C          65.6788   92.0584   13.3379 C.ar    1  UNL1        0.1219
     15 C          65.3452   92.4265   11.9225 C.ar    1  UNL1        0.0199
     16 C          64.2587   91.6934   11.1931 C.ar    1  UNL1        0.0014
     17 S          66.7652   92.7915   14.0674 S.O2    1  UNL1        0.0603
     18 O          65.8828   92.8969   15.2757 O.2     1  UNL1       -0.1530
     19 O          67.6477   92.6861   12.8590 O.2     1  UNL1       -0.1530
     20 N          67.8517   93.5246   14.7968 N.3     1  UNL1       -0.1779
     21 C          68.6586   92.8191   15.8462 C.3     1  UNL1        0.1102
     22 H          67.4127   94.3251   15.2517 H       1  UNL1        0.1488
     23 C          62.6591   85.3863    9.2382 C.2     1  UNL1        0.2015
     24 O          63.4374   85.1714    7.9742 O.2     1  UNL1       -0.2864
     25 C          62.7048   84.1742   13.0170 C.ar    1  UNL1        0.0920
     26 C          63.6903   83.0459   12.9408 C.ar    1  UNL1        0.0204
     27 C          64.3320   82.6977   11.6305 C.ar    1  UNL1        0.0312
     28 C          63.9883   83.4778   10.3963 C.ar    1  UNL1        0.1454
     29 F          64.6300   83.1296    9.0860 F       1  UNL1       -0.2040
     30 C          63.0028   84.6061   10.4725 C.ar    1  UNL1        0.0951
     31 C          62.3611   84.9542   11.7828 C.ar    1  UNL1        0.1598
     32 F          61.3756   86.0826   11.8589 F       1  UNL1       -0.2026
     33 N          62.0631   84.5223   14.3273 N.pl3   1  UNL1       -0.2166
     34 H          61.1259   84.2736   14.4980 H       1  UNL1        0.1734
     35 S          62.8492   85.2495   15.3777 S.O2    1  UNL1        0.0540
     36 O          63.5124   86.0712   14.3124 O.2     1  UNL1       -0.1545
     37 O          62.1860   84.4277   16.4429 O.2     1  UNL1       -0.1545
     38 C          63.6353   85.9765   16.4280 C.3     1  UNL1        0.1724
     39 C          63.0428   88.4211   17.0788 C.3     1  UNL1        0.0019
     40 C          62.9477   86.9474   17.3417 C.3     1  UNL1        0.0273
@<TRIPOS>BOND
     1    39    40    1
     2    40    38    1
     3    38    35    1
     4    35    36    2
     5    35    37    2
     6    35    33    1
     7    33    25    1
     8    25    26   ar
     9    26    27   ar
    10    27    28   ar
    11    28    29    1
    12    28    30   ar
    13    30    23    1
    14    23    24    2
    15    23     1    1
    16     1     2   ar
    17     2     3   ar
    18     3     4   ar
    19     4     5   ar
    20     5     6   ar
    21     6     7   ar
    22     7    11    1
    23    11    12   ar
    24    12    13   ar
    25    13    14   ar
    26    14    17    1
    27    17    18    2
    28    17    19    2
    29    17    20    1
    30    20    21    1
    31    14    15   ar
    32    15    16   ar
    33     7     8   ar
    34     8     9   ar
    35    30    31   ar
    36    31    32    1
    37    31    25   ar
    38     9     1   ar
    39     9     4    1
    40    16    11   ar
    41    33    34    1
    42     5    10    1
    43    20    22    1
@<TRIPOS>MOLECULE
*****
 40 43 0 0 0
SMALL
GASTEIGER

@<TRIPOS>ATOM
      1 C          61.4264   86.7105    9.0503 C.ar    1  UNL1        0.0611
      2 C          60.1410   86.6347    8.2808 C.ar    1  UNL1        0.1037
      3 N          59.5001   87.9904    8.3144 N.ar    1  UNL1       -0.2269
      4 C          60.3893   88.9041    9.1047 C.ar    1  UNL1        0.1407
      5 N          60.2687   90.3542    9.4689 N.ar    1  UNL1       -0.3374
      6 C          61.3387   91.0132   10.2879 C.ar    1  UNL1        0.0734
      7 C          62.5293   90.2221   10.7427 C.ar    1  UNL1        0.0171
      8 C          62.6498   88.7721   10.3784 C.ar    1  UNL1        0.0046
      9 C          61.5799   88.1131    9.5595 C.ar    1  UNL1        0.0386
     10 H          59.4873   90.8734    9.1704 H       1  UNL1        0.1674
     11 C          63.5993   90.8812   11.5617 C.ar    1  UNL1        0.0015
     12 C          64.4616   91.9462   10.9517 C.ar    1  UNL1        0.0014
     13 C          65.5317   92.6053   11.7707 C.ar    1  UNL1        0.0199
     14 C          65.7392   92.1994   13.1998 C.ar    1  UNL1        0.1219
     15 C          64.8768   91.1343   13.8098 C.ar    1  UNL1        0.0199
     16 C          63.8068   90.4753   12.9907 C.ar    1  UNL1        0.0014
     17 S          66.8092   92.8584   14.0188 S.O2    1  UNL1        0.0603
     18 O          67.8071   92.5893   12.9317 O.2     1  UNL1       -0.1530
     19 O          65.8113   93.1275   15.1058 O.2     1  UNL1       -0.1530
     20 N          67.8791   93.5174   14.8378 N.3     1  UNL1       -0.1779
     21 C          68.7511   92.6917   15.7366 C.3     1  UNL1        0.1102
     22 H          67.4146   94.2061   15.4297 H       1  UNL1        0.1488
     23 C          62.3893   85.5819    9.2717 C.2     1  UNL1        0.2015
     24 O          63.1793   85.0332    8.1207 O.2     1  UNL1       -0.2864
     25 C          63.4527   83.1166   12.1944 C.ar    1  UNL1        0.0920
     26 C          62.9081   83.8418   13.3891 C.ar    1  UNL1        0.0204
     27 C          62.1906   85.1470   13.2114 C.ar    1  UNL1        0.0312
     28 C          62.0176   85.7271   11.8390 C.ar    1  UNL1        0.1454
     29 F          61.3001   87.0323   11.6613 F       1  UNL1       -0.2040
     30 C          62.5622   85.0018   10.6442 C.ar    1  UNL1        0.0951
     31 C          63.2798   83.6966   10.8219 C.ar    1  UNL1        0.1598
     32 F          63.8243   82.9715    9.6271 F       1  UNL1       -0.2026
     33 N          64.1702   81.8114   12.3721 N.pl3   1  UNL1       -0.2166
     34 H          65.1175   81.7316   12.1160 H       1  UNL1        0.1734
     35 S          63.4445   80.6278   12.9399 S.O2    1  UNL1        0.0540
     36 O          62.8180   80.3699   11.6016 O.2     1  UNL1       -0.1545
     37 O          64.0709   80.8857   14.2782 O.2     1  UNL1       -0.1545
     38 C          62.7188   79.4443   13.5078 C.3     1  UNL1        0.1724
     39 C          60.6886   80.9347   14.1461 C.3     1  UNL1        0.0019
     40 C          61.2857   79.5756   13.9312 C.3     1  UNL1        0.0273
@<TRIPOS>BOND
     1    39    40    1
     2    40    38    1
     3    38    35    1
     4    35    36    2
     5    35    37    2
     6    35    33    1
     7    33    25    1
     8    25    26   ar
     9    26    27   ar
    10    27    28   ar
    11    28    29    1
    12    28    30   ar
    13    30    23    1
    14    23    24    2
    15    23     1    1
    16     1     2   ar
    17     2     3   ar
    18     3     4   ar
    19     4     5   ar
    20     5     6   ar
    21     6     7   ar
    22     7    11    1
    23    11    12   ar
    24    12    13   ar
    25    13    14   ar
    26    14    17    1
    27    17    18    2
    28    17    19    2
    29    17    20    1
    30    20    21    1
    31    14    15   ar
    32    15    16   ar
    33     7     8   ar
    34     8     9   ar
    35    30    31   ar
    36    31    32    1
    37    31    25   ar
    38     9     1   ar
    39     9     4    1
    40    16    11   ar
    41    33    34    1
    42     5    10    1
    43    20    22    1
@<TRIPOS>MOLECULE
*****
 40 43 0 0 0
SMALL
GASTEIGER

@<TRIPOS>ATOM
      1 C          64.0224   86.9870   15.7415 C.ar    1  UNL1        0.0611
      2 C          63.2672   86.7156   17.0088 C.ar    1  UNL1        0.1037
      3 N          62.8026   88.0302   17.5620 N.ar    1  UNL1       -0.2269
      4 C          63.2706   89.1140   16.6366 C.ar    1  UNL1        0.1407
      5 N          63.1077   90.6047   16.6731 N.ar    1  UNL1       -0.3374
      6 C          63.6987   91.4506   15.5845 C.ar    1  UNL1        0.0734
      7 C          64.4526   90.8058   14.4594 C.ar    1  UNL1        0.0171
      8 C          64.6155   89.3152   14.4228 C.ar    1  UNL1        0.0046
      9 C          64.0245   88.4693   15.5115 C.ar    1  UNL1        0.0386
     10 H          62.6129   91.0278   17.4116 H       1  UNL1        0.1674
     11 C          65.0436   91.6519   13.3707 C.ar    1  UNL1        0.0015
     12 C          64.4935   91.5731   11.9775 C.ar    1  UNL1        0.0014
     13 C          65.0846   92.4191   10.8888 C.ar    1  UNL1        0.0199
     14 C          66.2256   93.3438   11.1935 C.ar    1  UNL1        0.1219
     15 C          66.7757   93.4226   12.5869 C.ar    1  UNL1        0.0199
     16 C          66.1846   92.5766   13.6754 C.ar    1  UNL1        0.0014
     17 S          66.8166   94.1898   10.1050 S.O2    1  UNL1        0.0603
     18 O          67.5036   92.9823    9.5396 O.2     1  UNL1       -0.1530
     19 O          66.1296   95.3974   10.6704 O.2     1  UNL1       -0.1530
     20 N          67.4076   95.0358    9.0164 N.3     1  UNL1       -0.1779
     21 C          66.6239   96.1814    8.4478 C.3     1  UNL1        0.1102
     22 H          67.6199   94.4099    8.2395 H       1  UNL1        0.1488
     23 C          64.6631   85.9570   14.8591 C.2     1  UNL1        0.2015
     24 O          66.1575   85.8406   14.8050 O.2     1  UNL1       -0.2864
     25 C          62.6378   82.7487   13.6948 C.ar    1  UNL1        0.0920
     26 C          62.1015   83.2159   12.3742 C.ar    1  UNL1        0.0204
     27 C          62.4190   84.5967   11.8819 C.ar    1  UNL1        0.0312
     28 C          63.2728   85.5104   12.7101 C.ar    1  UNL1        0.1454
     29 F          63.5904   86.8913   12.2178 F       1  UNL1       -0.2040
     30 C          63.8092   85.0433   14.0307 C.ar    1  UNL1        0.0951
     31 C          63.4916   83.6624   14.5231 C.ar    1  UNL1        0.1598
     32 F          64.0280   83.1953   15.8438 F       1  UNL1       -0.2026
     33 N          62.3203   81.3678   14.1872 N.pl3   1  UNL1       -0.2166
     34 H          61.9993   81.2354   15.1084 H       1  UNL1        0.1734
     35 S          62.4917   80.1888   13.2759 S.O2    1  UNL1        0.0540
     36 O          61.0692   79.7861   13.5293 O.2     1  UNL1       -0.1545
     37 O          63.9142   80.5916   13.0224 O.2     1  UNL1       -0.1545
     38 C          62.6632   79.0098   12.3645 C.3     1  UNL1        0.1724
     39 C          63.0387   80.5281   10.2899 C.3     1  UNL1        0.0019
     40 C          62.6506   79.2035   10.8771 C.3     1  UNL1        0.0273
@<TRIPOS>BOND
     1    39    40    1
     2    40    38    1
     3    38    35    1
     4    35    36    2
     5    35    37    2
     6    35    33    1
     7    33    25    1
     8    25    26   ar
     9    26    27   ar
    10    27    28   ar
    11    28    29    1
    12    28    30   ar
    13    30    23    1
    14    23    24    2
    15    23     1    1
    16     1     2   ar
    17     2     3   ar
    18     3     4   ar
    19     4     5   ar
    20     5     6   ar
    21     6     7   ar
    22     7    11    1
    23    11    12   ar
    24    12    13   ar
    25    13    14   ar
    26    14    17    1
    27    17    18    2
    28    17    19    2
    29    17    20    1
    30    20    21    1
    31    14    15   ar
    32    15    16   ar
    33     7     8   ar
    34     8     9   ar
    35    30    31   ar
    36    31    32    1
    37    31    25   ar
    38     9     1   ar
    39     9     4    1
    40    16    11   ar
    41    33    34    1
    42     5    10    1
    43    20    22    1
@<TRIPOS>MOLECULE
*****
 40 43 0 0 0
SMALL
GASTEIGER

@<TRIPOS>ATOM
      1 C          63.8464   89.6161   14.7428 C.ar    1  UNL1        0.0611
      2 C          63.7674   90.4849   15.9629 C.ar    1  UNL1        0.1037
      3 N          63.4158   89.6124   17.1313 N.ar    1  UNL1       -0.2269
      4 C          63.2775   88.2042   16.6332 C.ar    1  UNL1        0.1407
      5 N          62.9437   86.9203   17.3331 N.ar    1  UNL1       -0.3374
      6 C          62.8760   85.6386   16.5568 C.ar    1  UNL1        0.0734
      7 C          63.1421   85.6409   15.0806 C.ar    1  UNL1        0.0171
      8 C          63.4760   86.9249   14.3807 C.ar    1  UNL1        0.0046
      9 C          63.5437   88.2065   15.1570 C.ar    1  UNL1        0.0386
     10 H          62.7690   86.9188   18.3020 H       1  UNL1        0.1674
     11 C          63.0744   84.3591   14.3043 C.ar    1  UNL1        0.0015
     12 C          62.4227   83.1504   14.9077 C.ar    1  UNL1        0.0014
     13 C          62.3550   81.8686   14.1314 C.ar    1  UNL1        0.0199
     14 C          62.9390   81.7957   12.7517 C.ar    1  UNL1        0.1219
     15 C          63.5907   83.0045   12.1483 C.ar    1  UNL1        0.0199
     16 C          63.6584   84.2862   12.9246 C.ar    1  UNL1        0.0014
     17 S          62.8713   80.5140   11.9754 S.O2    1  UNL1        0.0603
     18 O          63.3351   81.2350   10.7446 O.2     1  UNL1       -0.1530
     19 O          62.4075   79.7930   13.2063 O.2     1  UNL1       -0.1530
     20 N          62.8036   79.2323   11.1991 N.3     1  UNL1       -0.1779
     21 C          62.8063   79.2627    9.6995 C.3     1  UNL1        0.1102
     22 H          61.9444   78.7614   11.4825 H       1  UNL1        0.1488
     23 C          64.1712   90.0760   13.3524 C.2     1  UNL1        0.2015
     24 O          63.6265   89.3315   12.1697 O.2     1  UNL1       -0.2864
     25 C          65.6072   93.4464   11.8263 C.ar    1  UNL1        0.0920
     26 C          66.7798   93.6895   12.7296 C.ar    1  UNL1        0.0204
     27 C          67.0829   92.7282   13.8404 C.ar    1  UNL1        0.0312
     28 C          66.2134   91.5237   14.0481 C.ar    1  UNL1        0.1454
     29 F          66.5165   90.5624   15.1589 F       1  UNL1       -0.2040
     30 C          65.0408   91.2805   13.1448 C.ar    1  UNL1        0.0951
     31 C          64.7377   92.2419   12.0340 C.ar    1  UNL1        0.1598
     32 F          63.5650   91.9986   11.1308 F       1  UNL1       -0.2026
     33 N          65.3041   94.4077   10.7155 N.pl3   1  UNL1       -0.2166
     34 H          64.3697   94.5998   10.4720 H       1  UNL1        0.1734
     35 S          66.4246   95.0764    9.9757 S.O2    1  UNL1        0.0540
     36 O          66.7460   93.7808    9.2915 O.2     1  UNL1       -0.1545
     37 O          66.1033   96.3719   10.6600 O.2     1  UNL1       -0.1545
     38 C          67.5451   95.7451    9.2360 C.3     1  UNL1        0.1724
     39 C          66.0587   96.6671    7.3149 C.3     1  UNL1        0.0019
     40 C          67.2448   96.8089    8.2221 C.3     1  UNL1        0.0273
@<TRIPOS>BOND
     1    39    40    1
     2    40    38    1
     3    38    35    1
     4    35    36    2
     5    35    37    2
     6    35    33    1
     7    33    25    1
     8    25    26   ar
     9    26    27   ar
    10    27    28   ar
    11    28    29    1
    12    28    30   ar
    13    30    23    1
    14    23    24    2
    15    23     1    1
    16     1     2   ar
    17     2     3   ar
    18     3     4   ar
    19     4     5   ar
    20     5     6   ar
    21     6     7   ar
    22     7    11    1
    23    11    12   ar
    24    12    13   ar
    25    13    14   ar
    26    14    17    1
    27    17    18    2
    28    17    19    2
    29    17    20    1
    30    20    21    1
    31    14    15   ar
    32    15    16   ar
    33     7     8   ar
    34     8     9   ar
    35    30    31   ar
    36    31    32    1
    37    31    25   ar
    38     9     1   ar
    39     9     4    1
    40    16    11   ar
    41    33    34    1
    42     5    10    1
    43    20    22    1
@<TRIPOS>MOLECULE
*****
 40 43 0 0 0
SMALL
GASTEIGER

@<TRIPOS>ATOM
      1 C          64.8130   91.0524   15.0042 C.ar    1  UNL1        0.0611
      2 C          64.5077   92.1393   15.9919 C.ar    1  UNL1        0.1037
      3 N          63.7507   91.5286   17.1338 N.ar    1  UNL1       -0.2269
      4 C          63.5881   90.0643   16.8519 C.ar    1  UNL1        0.1407
      5 N          62.9270   88.9610   17.6235 N.ar    1  UNL1       -0.3374
      6 C          62.9224   87.5633   17.0791 C.ar    1  UNL1        0.0734
      7 C          63.5790   87.2690   15.7629 C.ar    1  UNL1        0.0171
      8 C          64.2401   88.3724   14.9912 C.ar    1  UNL1        0.0046
      9 C          64.2446   89.7700   15.5357 C.ar    1  UNL1        0.0386
     10 H          62.4961   89.1541   18.4874 H       1  UNL1        0.1674
     11 C          63.5744   85.8713   15.2184 C.ar    1  UNL1        0.0015
     12 C          62.4887   84.9154   15.6151 C.ar    1  UNL1        0.0014
     13 C          62.4841   83.5177   15.0706 C.ar    1  UNL1        0.0199
     14 C          63.5653   83.0759   14.1294 C.ar    1  UNL1        0.1219
     15 C          64.6511   84.0319   13.7327 C.ar    1  UNL1        0.0199
     16 C          64.6556   85.4295   14.2772 C.ar    1  UNL1        0.0014
     17 S          63.5608   81.6783   13.5849 S.O2    1  UNL1        0.0603
     18 O          64.6070   82.0655   12.5822 O.2     1  UNL1       -0.1530
     19 O          62.5146   81.2910   14.5877 O.2     1  UNL1       -0.1530
     20 N          63.5563   80.2806   13.0405 N.3     1  UNL1       -0.1779
     21 C          62.2814   79.4908   13.0123 C.3     1  UNL1        0.1102
     22 H          64.2220   79.7453   13.5978 H       1  UNL1        0.1488
     23 C          65.5562   91.2187   13.7119 C.2     1  UNL1        0.2015
     24 O          67.0560   91.2038   13.7019 O.2     1  UNL1       -0.2864
     25 C          62.7252   90.8917   10.9498 C.ar    1  UNL1        0.0920
     26 C          63.2859   91.7625    9.8648 C.ar    1  UNL1        0.0204
     27 C          64.6034   92.4519   10.0621 C.ar    1  UNL1        0.0312
     28 C          65.3601   92.2707   11.3444 C.ar    1  UNL1        0.1454
     29 F          66.6776   92.9602   11.5417 F       1  UNL1       -0.2040
     30 C          64.7994   91.4000   12.4295 C.ar    1  UNL1        0.0951
     31 C          63.4820   90.7105   12.2322 C.ar    1  UNL1        0.1598
     32 F          62.9213   89.8397   13.3173 F       1  UNL1       -0.2026
     33 N          61.4077   90.2022   10.7525 N.pl3   1  UNL1       -0.2166
     34 H          60.6216   90.7173   10.4593 H       1  UNL1        0.1734
     35 S          61.2880   88.7280   11.0020 S.O2    1  UNL1        0.0540
     36 O          62.3020   88.4640    9.9287 O.2     1  UNL1       -0.1545
     37 O          60.2740   88.9919   12.0754 O.2     1  UNL1       -0.1545
     38 C          61.1683   87.2538   11.2516 C.3     1  UNL1        0.1724
     39 C          62.4779   85.0361   10.9095 C.3     1  UNL1        0.0019
     40 C          62.4012   86.4268   11.4662 C.3     1  UNL1        0.0273
@<TRIPOS>BOND
     1    39    40    1
     2    40    38    1
     3    38    35    1
     4    35    36    2
     5    35    37    2
     6    35    33    1
     7    33    25    1
     8    25    26   ar
     9    26    27   ar
    10    27    28   ar
    11    28    29    1
    12    28    30   ar
    13    30    23    1
    14    23    24    2
    15    23     1    1
    16     1     2   ar
    17     2     3   ar
    18     3     4   ar
    19     4     5   ar
    20     5     6   ar
    21     6     7   ar
    22     7    11    1
    23    11    12   ar
    24    12    13   ar
    25    13    14   ar
    26    14    17    1
    27    17    18    2
    28    17    19    2
    29    17    20    1
    30    20    21    1
    31    14    15   ar
    32    15    16   ar
    33     7     8   ar
    34     8     9   ar
    35    30    31   ar
    36    31    32    1
    37    31    25   ar
    38     9     1   ar
    39     9     4    1
    40    16    11   ar
    41    33    34    1
    42     5    10    1
    43    20    22    1
