@<TRIPOS>MOLECULE
*****
 31 33 0 0 0
SMALL
GASTEIGER

@<TRIPOS>ATOM
      1 N          62.2765   88.8354   10.1737 N.am    1  UNL1       -0.2916
      2 C          62.0768   89.4108   11.5445 C.2     1  UNL1        0.2462
      3 O          60.7236   89.3592   12.1897 O.2     1  UNL1       -0.2701
      4 H          63.1646   88.8692    9.7502 H       1  UNL1        0.1502
      5 C          63.2303   90.0379   12.2700 C.ar    1  UNL1        0.0534
      6 C          63.8526   91.2968   11.7431 C.ar    1  UNL1        0.0045
      7 C          65.0060   91.9238   12.4686 C.ar    1  UNL1        0.0002
      8 C          65.5371   91.2919   13.7211 C.ar    1  UNL1        0.0022
      9 C          64.9147   90.0329   14.2480 C.ar    1  UNL1        0.0002
     10 C          63.7613   89.4059   13.5225 C.ar    1  UNL1        0.0045
     11 C          66.6906   91.9190   14.4466 C.ar    1  UNL1        0.0275
     12 C          66.4873   92.5085   15.8108 C.ar    1  UNL1        0.0022
     13 C          67.6408   93.1356   16.5364 C.ar    1  UNL1        0.0001
     14 C          68.9975   93.1731   15.8976 C.ar    1  UNL1        0.0023
     15 C          69.2007   92.5835   14.5334 C.ar    1  UNL1        0.0296
     16 C          68.0473   91.9565   13.8079 C.ar    1  UNL1        0.1401
     17 F          68.2505   91.3669   12.4436 F       1  UNL1       -0.2042
     18 C          61.1230   88.2083    9.4482 C.3     1  UNL1        0.1963
     19 C          60.1663   89.0675    8.6759 C.2     1  UNL1        0.3371
     20 O          59.5551   90.2760    9.3209 O.2     1  UNL1       -0.2482
     21 O          59.8209   88.7184    7.2586 O.3     1  UNL1       -0.4473
     22 C          58.6778   89.4071    6.5738 C.3     1  UNL1        0.2084
     23 C          57.8047   91.3643    5.1051 C.3     1  UNL1        0.0038
     24 C          58.9435   90.5375    5.6244 C.3     1  UNL1        0.0439
     25 C          60.3481   90.8413    5.1942 C.3     1  UNL1        0.0038
     26 C          60.9262   86.7220    9.4950 C.3     1  UNL1        0.1602
     27 N          61.7442   85.8864   10.4345 N.ar    1  UNL1       -0.2278
     28 C          62.7330   84.8293   10.0411 C.ar    1  UNL1        0.1973
     29 N          63.3169   84.2508   11.2959 N.ar    1  UNL1       -0.2007
     30 C          62.6888   84.9504   12.4647 C.ar    1  UNL1        0.2210
     31 N          61.7169   85.9612   11.9324 N.ar    1  UNL1       -0.1451
@<TRIPOS>BOND
     1    23    24    1
     2    24    25    1
     3    24    22    1
     4    22    21    1
     5    21    19    1
     6    19    20    2
     7    19    18    1
     8    18    26    1
     9    26    27    1
    10    27    28   ar
    11    28    29   ar
    12    29    30   ar
    13    30    31   ar
    14    18     1    1
    15     1     2   am
    16     2     3    2
    17     2     5    1
    18     5     6   ar
    19     6     7   ar
    20     7     8   ar
    21     8    11    1
    22    11    12   ar
    23    12    13   ar
    24    13    14   ar
    25    14    15   ar
    26    15    16   ar
    27    16    17    1
    28     8     9   ar
    29     9    10   ar
    30    31    27   ar
    31    10     5   ar
    32    16    11   ar
    33     1     4    1
@<TRIPOS>MOLECULE
*****
 31 33 0 0 0
SMALL
GASTEIGER

@<TRIPOS>ATOM
      1 N          62.5748   88.1418   10.9577 N.am    1  UNL1       -0.2916
      2 C          62.3170   89.1653   12.0235 C.2     1  UNL1        0.2462
      3 O          60.9114   89.4580   12.4578 O.2     1  UNL1       -0.2701
      4 H          63.4973   87.9496   10.6726 H       1  UNL1        0.1502
      5 C          63.4647   89.8961   12.6550 C.ar    1  UNL1        0.0534
      6 C          63.9804   91.1610   12.0354 C.ar    1  UNL1        0.0045
      7 C          65.1280   91.8917   12.6669 C.ar    1  UNL1        0.0002
      8 C          65.7601   91.3575   13.9179 C.ar    1  UNL1        0.0022
      9 C          65.2444   90.0925   14.5375 C.ar    1  UNL1        0.0002
     10 C          64.0967   89.3618   13.9060 C.ar    1  UNL1        0.0045
     11 C          66.9078   92.0883   14.5494 C.ar    1  UNL1        0.0275
     12 C          66.6952   92.8718   15.8107 C.ar    1  UNL1        0.0022
     13 C          67.8430   93.6026   16.4422 C.ar    1  UNL1        0.0001
     14 C          69.2033   93.5499   15.8123 C.ar    1  UNL1        0.0023
     15 C          69.4158   92.7663   14.5509 C.ar    1  UNL1        0.0296
     16 C          68.2681   92.0356   13.9195 C.ar    1  UNL1        0.1401
     17 F          68.4807   91.2521   12.6581 F       1  UNL1       -0.2042
     18 C          61.4271   87.4110   10.3262 C.3     1  UNL1        0.1963
     19 C          60.6536   88.0499    9.2111 C.2     1  UNL1        0.3371
     20 O          59.8812   89.3113    9.4608 O.2     1  UNL1       -0.2482
     21 O          60.6525   87.4275    7.8464 O.3     1  UNL1       -0.4473
     22 C          60.5674   85.9369    7.7019 C.3     1  UNL1        0.2084
     23 C          61.6270   84.3835    5.9091 C.3     1  UNL1        0.0038
     24 C          61.7447   85.1651    7.1840 C.3     1  UNL1        0.0439
     25 C          63.0397   85.1749    7.9409 C.3     1  UNL1        0.0038
     26 C          61.0529   86.0413   10.8099 C.3     1  UNL1        0.1602
     27 N          62.0272   85.2405   11.6218 N.ar    1  UNL1       -0.2278
     28 C          62.5640   83.8849   11.2694 C.ar    1  UNL1        0.1973
     29 N          63.5044   83.4613   12.3585 N.ar    1  UNL1       -0.2007
     30 C          63.5488   84.5551   13.3840 C.ar    1  UNL1        0.2210
     31 N          62.6358   85.6547   12.9287 N.ar    1  UNL1       -0.1451
@<TRIPOS>BOND
     1    23    24    1
     2    24    25    1
     3    24    22    1
     4    22    21    1
     5    21    19    1
     6    19    20    2
     7    19    18    1
     8    18    26    1
     9    26    27    1
    10    27    28   ar
    11    28    29   ar
    12    29    30   ar
    13    30    31   ar
    14    18     1    1
    15     1     2   am
    16     2     3    2
    17     2     5    1
    18     5     6   ar
    19     6     7   ar
    20     7     8   ar
    21     8    11    1
    22    11    12   ar
    23    12    13   ar
    24    13    14   ar
    25    14    15   ar
    26    15    16   ar
    27    16    17    1
    28     8     9   ar
    29     9    10   ar
    30    31    27   ar
    31    10     5   ar
    32    16    11   ar
    33     1     4    1
@<TRIPOS>MOLECULE
*****
 31 33 0 0 0
SMALL
GASTEIGER

@<TRIPOS>ATOM
      1 N          65.2757   90.8718   12.7180 N.am    1  UNL1       -0.2916
      2 C          64.1386   90.2678   13.4875 C.2     1  UNL1        0.2462
      3 O          63.1936   91.1514   14.2466 O.2     1  UNL1       -0.2701
      4 H          65.8959   90.2918   12.2198 H       1  UNL1        0.1502
      5 C          63.9464   88.7801   13.4978 C.ar    1  UNL1        0.0534
      6 C          63.2353   88.1078   12.3611 C.ar    1  UNL1        0.0045
      7 C          63.0431   86.6203   12.3715 C.ar    1  UNL1        0.0002
      8 C          63.5621   85.8050   13.5186 C.ar    1  UNL1        0.0022
      9 C          64.2732   86.4773   14.6554 C.ar    1  UNL1        0.0002
     10 C          64.4654   87.9648   14.6450 C.ar    1  UNL1        0.0045
     11 C          63.3699   84.3173   13.5290 C.ar    1  UNL1        0.0275
     12 C          64.1545   83.4532   12.5869 C.ar    1  UNL1        0.0022
     13 C          63.9623   81.9655   12.5972 C.ar    1  UNL1        0.0001
     14 C          62.9855   81.3421   13.5497 C.ar    1  UNL1        0.0023
     15 C          62.2009   82.2064   14.4918 C.ar    1  UNL1        0.0296
     16 C          62.3931   83.6939   14.4814 C.ar    1  UNL1        0.1401
     17 F          61.6084   84.5582   15.4235 F       1  UNL1       -0.2042
     18 C          65.4679   92.3594   12.7077 C.3     1  UNL1        0.1963
     19 C          65.9312   93.0644   13.9480 C.2     1  UNL1        0.3371
     20 O          66.2498   94.5296   13.9032 O.2     1  UNL1       -0.2482
     21 O          66.0760   92.3043   15.2330 O.3     1  UNL1       -0.4473
     22 C          67.1433   92.6875   16.2148 C.3     1  UNL1        0.2084
     23 C          69.2221   92.2070   14.7324 C.3     1  UNL1        0.0038
     24 C          68.5079   93.0740   15.7265 C.3     1  UNL1        0.0439
     25 C          69.1583   94.3275   16.2322 C.3     1  UNL1        0.0038
     26 C          65.1968   93.1420   11.4571 C.3     1  UNL1        0.1602
     27 N          66.3347   93.5687   10.5779 N.ar    1  UNL1       -0.2278
     28 C          67.5223   92.7319   10.2047 C.ar    1  UNL1        0.1973
     29 N          68.4065   93.5531    9.3137 N.ar    1  UNL1       -0.2007
     30 C          67.7652   94.8975    9.1362 C.ar    1  UNL1        0.2210
     31 N          66.4848   94.9071    9.9176 N.ar    1  UNL1       -0.1451
@<TRIPOS>BOND
     1    23    24    1
     2    24    25    1
     3    24    22    1
     4    22    21    1
     5    21    19    1
     6    19    20    2
     7    19    18    1
     8    18    26    1
     9    26    27    1
    10    27    28   ar
    11    28    29   ar
    12    29    30   ar
    13    30    31   ar
    14    18     1    1
    15     1     2   am
    16     2     3    2
    17     2     5    1
    18     5     6   ar
    19     6     7   ar
    20     7     8   ar
    21     8    11    1
    22    11    12   ar
    23    12    13   ar
    24    13    14   ar
    25    14    15   ar
    26    15    16   ar
    27    16    17    1
    28     8     9   ar
    29     9    10   ar
    30    31    27   ar
    31    10     5   ar
    32    16    11   ar
    33     1     4    1
@<TRIPOS>MOLECULE
*****
 31 33 0 0 0
SMALL
GASTEIGER

@<TRIPOS>ATOM
      1 N          65.2908   90.7703   12.9484 N.am    1  UNL1       -0.2916
      2 C          64.1757   90.1300   13.7207 C.2     1  UNL1        0.2462
      3 O          63.3248   90.9593   14.6362 O.2     1  UNL1       -0.2701
      4 H          65.8493   90.2260   12.3475 H       1  UNL1        0.1502
      5 C          63.9116   88.6603   13.5776 C.ar    1  UNL1        0.0534
      6 C          64.3972   87.7053   14.6273 C.ar    1  UNL1        0.0045
      7 C          64.1330   86.2357   14.4842 C.ar    1  UNL1        0.0002
      8 C          63.3833   85.7212   13.2912 C.ar    1  UNL1        0.0022
      9 C          62.8977   86.6762   12.2415 C.ar    1  UNL1        0.0002
     10 C          63.1618   88.1458   12.3846 C.ar    1  UNL1        0.0045
     11 C          63.1191   84.2515   13.1481 C.ar    1  UNL1        0.0275
     12 C          63.5382   83.5323   11.9003 C.ar    1  UNL1        0.0022
     13 C          63.2740   82.0626   11.7572 C.ar    1  UNL1        0.0001
     14 C          62.5908   81.3123   12.8619 C.ar    1  UNL1        0.0023
     15 C          62.1718   82.0317   14.1097 C.ar    1  UNL1        0.0296
     16 C          62.4359   83.5013   14.2528 C.ar    1  UNL1        0.1401
     17 F          62.0169   84.2206   15.5006 F       1  UNL1       -0.2042
     18 C          65.5549   92.2400   13.0915 C.3     1  UNL1        0.1963
     19 C          65.4858   93.1349   11.8897 C.2     1  UNL1        0.3371
     20 O          64.7150   92.7041   10.6771 O.2     1  UNL1       -0.2482
     21 O          66.1875   94.4606   11.9005 O.3     1  UNL1       -0.4473
     22 C          66.0249   95.4047   10.7463 C.3     1  UNL1        0.2084
     23 C          67.2891   96.7426    8.9128 C.3     1  UNL1        0.0038
     24 C          67.0746   95.4697    9.6768 C.3     1  UNL1        0.0439
     25 C          67.9100   94.2618    9.3714 C.3     1  UNL1        0.0038
     26 C          65.8881   92.8146   14.4364 C.3     1  UNL1        0.1602
     27 N          67.3210   93.0172   14.8313 N.ar    1  UNL1       -0.2278
     28 C          68.5107   92.3530   14.2041 C.ar    1  UNL1        0.1973
     29 N          69.7407   92.8448   14.9079 N.ar    1  UNL1       -0.2007
     30 C          69.3110   93.8130   15.9700 C.ar    1  UNL1        0.2210
     31 N          67.8156   93.9195   15.9226 N.ar    1  UNL1       -0.1451
@<TRIPOS>BOND
     1    23    24    1
     2    24    25    1
     3    24    22    1
     4    22    21    1
     5    21    19    1
     6    19    20    2
     7    19    18    1
     8    18    26    1
     9    26    27    1
    10    27    28   ar
    11    28    29   ar
    12    29    30   ar
    13    30    31   ar
    14    18     1    1
    15     1     2   am
    16     2     3    2
    17     2     5    1
    18     5     6   ar
    19     6     7   ar
    20     7     8   ar
    21     8    11    1
    22    11    12   ar
    23    12    13   ar
    24    13    14   ar
    25    14    15   ar
    26    15    16   ar
    27    16    17    1
    28     8     9   ar
    29     9    10   ar
    30    31    27   ar
    31    10     5   ar
    32    16    11   ar
    33     1     4    1
@<TRIPOS>MOLECULE
*****
 31 33 0 0 0
SMALL
GASTEIGER

@<TRIPOS>ATOM
      1 N          64.6444   90.0171   13.1424 N.am    1  UNL1       -0.2916
      2 C          63.3806   89.3699   12.6589 C.2     1  UNL1        0.2462
      3 O          62.2477   90.2168   12.1595 O.2     1  UNL1       -0.2701
      4 H          65.3879   89.4613   13.4701 H       1  UNL1        0.1502
      5 C          63.2496   87.8756   12.6748 C.ar    1  UNL1        0.0534
      6 C          63.9077   87.0766   13.7603 C.ar    1  UNL1        0.0045
      7 C          63.7767   85.5824   13.7761 C.ar    1  UNL1        0.0002
      8 C          62.9876   84.8873   12.7065 C.ar    1  UNL1        0.0022
      9 C          62.3294   85.6864   11.6210 C.ar    1  UNL1        0.0002
     10 C          62.4605   87.1806   11.6052 C.ar    1  UNL1        0.0045
     11 C          62.8566   83.3931   12.7223 C.ar    1  UNL1        0.0275
     12 C          62.3240   82.6998   13.9412 C.ar    1  UNL1        0.0022
     13 C          62.1930   81.2056   13.9571 C.ar    1  UNL1        0.0001
     14 C          62.5946   80.4047   12.7540 C.ar    1  UNL1        0.0023
     15 C          63.1272   81.0981   11.5351 C.ar    1  UNL1        0.0296
     16 C          63.2582   82.5922   11.5193 C.ar    1  UNL1        0.1401
     17 F          63.7909   83.2856   10.3004 F       1  UNL1       -0.2042
     18 C          64.7754   91.5114   13.1265 C.3     1  UNL1        0.1963
     19 C          65.1495   92.2448   14.3804 C.2     1  UNL1        0.3371
     20 O          64.6312   91.7747   15.7072 O.2     1  UNL1       -0.2482
     21 O          66.0419   93.4482   14.3074 O.3     1  UNL1       -0.4473
     22 C          67.5318   93.2765   14.2791 C.3     1  UNL1        0.2084
     23 C          68.2863   91.9618   16.3891 C.3     1  UNL1        0.0038
     24 C          68.3041   93.2140   15.5635 C.3     1  UNL1        0.0439
     25 C          69.0942   94.4037   16.0222 C.3     1  UNL1        0.0038
     26 C          64.5323   92.2721   11.8568 C.3     1  UNL1        0.1602
     27 N          65.6539   93.0291   11.2097 N.ar    1  UNL1       -0.2278
     28 C          66.9652   92.4527   10.7644 C.ar    1  UNL1        0.1973
     29 N          67.7829   93.5628   10.1737 N.ar    1  UNL1       -0.2007
     30 C          66.9769   94.8254   10.2539 C.ar    1  UNL1        0.2210
     31 N          65.6612   94.4956   10.8942 N.ar    1  UNL1       -0.1451
@<TRIPOS>BOND
     1    23    24    1
     2    24    25    1
     3    24    22    1
     4    22    21    1
     5    21    19    1
     6    19    20    2
     7    19    18    1
     8    18    26    1
     9    26    27    1
    10    27    28   ar
    11    28    29   ar
    12    29    30   ar
    13    30    31   ar
    14    18     1    1
    15     1     2   am
    16     2     3    2
    17     2     5    1
    18     5     6   ar
    19     6     7   ar
    20     7     8   ar
    21     8    11    1
    22    11    12   ar
    23    12    13   ar
    24    13    14   ar
    25    14    15   ar
    26    15    16   ar
    27    16    17    1
    28     8     9   ar
    29     9    10   ar
    30    31    27   ar
    31    10     5   ar
    32    16    11   ar
    33     1     4    1
@<TRIPOS>MOLECULE
*****
 31 33 0 0 0
SMALL
GASTEIGER

@<TRIPOS>ATOM
      1 N          62.1701   87.9933    9.7012 N.am    1  UNL1       -0.2916
      2 C          61.8251   88.4140   11.0990 C.2     1  UNL1        0.2462
      3 O          60.4954   88.0446   11.6868 O.2     1  UNL1       -0.2701
      4 H          63.0428   88.2357    9.3154 H       1  UNL1        0.1502
      5 C          62.8097   89.2042   11.9091 C.ar    1  UNL1        0.0534
      6 C          63.1554   90.6078   11.5085 C.ar    1  UNL1        0.0045
      7 C          64.1400   91.3979   12.3185 C.ar    1  UNL1        0.0002
      8 C          64.7789   90.7845   13.5292 C.ar    1  UNL1        0.0022
      9 C          64.4332   89.3810   13.9297 C.ar    1  UNL1        0.0002
     10 C          63.4486   88.5908   13.1197 C.ar    1  UNL1        0.0045
     11 C          65.7635   91.5747   14.3392 C.ar    1  UNL1        0.0275
     12 C          67.1057   91.9163   13.7633 C.ar    1  UNL1        0.0022
     13 C          68.0904   92.7066   14.5734 C.ar    1  UNL1        0.0001
     14 C          67.7327   93.1551   15.9593 C.ar    1  UNL1        0.0023
     15 C          66.3904   92.8135   16.5352 C.ar    1  UNL1        0.0296
     16 C          65.4058   92.0233   15.7252 C.ar    1  UNL1        0.1401
     17 F          64.0635   91.6817   16.3010 F       1  UNL1       -0.2042
     18 C          61.1855   87.2030    8.8911 C.3     1  UNL1        0.1963
     19 C          59.9397   87.8604    8.3754 C.2     1  UNL1        0.3371
     20 O          58.5980   87.2543    8.6626 O.2     1  UNL1       -0.2482
     21 O          60.0357   89.1237    7.5724 O.3     1  UNL1       -0.4473
     22 C          58.8399   89.6262    6.8191 C.3     1  UNL1        0.2084
     23 C          60.3845   90.8175    5.1031 C.3     1  UNL1        0.0038
     24 C          59.0197   90.5862    5.6807 C.3     1  UNL1        0.0439
     25 C          57.8346   91.3151    5.1199 C.3     1  UNL1        0.0038
     26 C          61.4467   85.7556    8.5969 C.3     1  UNL1        0.1602
     27 N          62.3265   84.9520    9.5079 N.ar    1  UNL1       -0.2278
     28 C          63.5240   84.1487    9.0945 C.ar    1  UNL1        0.1973
     29 N          64.1010   83.5108   10.3234 N.ar    1  UNL1       -0.2007
     30 C          63.2601   83.9199   11.4963 C.ar    1  UNL1        0.2210
     31 N          62.1635   84.8106   10.9923 N.ar    1  UNL1       -0.1451
@<TRIPOS>BOND
     1    23    24    1
     2    24    25    1
     3    24    22    1
     4    22    21    1
     5    21    19    1
     6    19    20    2
     7    19    18    1
     8    18    26    1
     9    26    27    1
    10    27    28   ar
    11    28    29   ar
    12    29    30   ar
    13    30    31   ar
    14    18     1    1
    15     1     2   am
    16     2     3    2
    17     2     5    1
    18     5     6   ar
    19     6     7   ar
    20     7     8   ar
    21     8    11    1
    22    11    12   ar
    23    12    13   ar
    24    13    14   ar
    25    14    15   ar
    26    15    16   ar
    27    16    17    1
    28     8     9   ar
    29     9    10   ar
    30    31    27   ar
    31    10     5   ar
    32    16    11   ar
    33     1     4    1
@<TRIPOS>MOLECULE
*****
 31 33 0 0 0
SMALL
GASTEIGER

@<TRIPOS>ATOM
      1 N          65.4140   90.5943   14.0775 N.am    1  UNL1       -0.2916
      2 C          64.1079   89.8970   14.3180 C.2     1  UNL1        0.2462
      3 O          62.9844   90.6225   14.9973 O.2     1  UNL1       -0.2701
      4 H          66.1514   90.1181   13.6316 H       1  UNL1        0.1502
      5 C          63.9253   88.4743   13.8793 C.ar    1  UNL1        0.0534
      6 C          63.2369   88.1722   12.5813 C.ar    1  UNL1        0.0045
      7 C          63.0543   86.7494   12.1426 C.ar    1  UNL1        0.0002
      8 C          63.5600   85.6288   13.0019 C.ar    1  UNL1        0.0022
      9 C          64.2483   85.9309   14.3000 C.ar    1  UNL1        0.0002
     10 C          64.4310   87.3536   14.7386 C.ar    1  UNL1        0.0045
     11 C          63.3773   84.2060   12.5632 C.ar    1  UNL1        0.0275
     12 C          63.9710   83.7387   11.2674 C.ar    1  UNL1        0.0022
     13 C          63.7884   82.3159   10.8287 C.ar    1  UNL1        0.0001
     14 C          63.0120   81.3606   11.6858 C.ar    1  UNL1        0.0023
     15 C          62.4183   81.8280   12.9816 C.ar    1  UNL1        0.0296
     16 C          62.6010   83.2507   13.4203 C.ar    1  UNL1        0.1401
     17 F          62.0073   83.7182   14.7161 F       1  UNL1       -0.2042
     18 C          65.5967   92.0170   14.5162 C.3     1  UNL1        0.1963
     19 C          65.5752   92.3603   15.9763 C.2     1  UNL1        0.3371
     20 O          64.2672   92.4626   16.7035 O.2     1  UNL1       -0.2482
     21 O          66.8616   92.6011   16.7091 O.3     1  UNL1       -0.4473
     22 C          68.1516   92.0756   16.1525 C.3     1  UNL1        0.2084
     23 C          69.2150   94.4358   15.9319 C.3     1  UNL1        0.0038
     24 C          69.1137   93.0092   15.4797 C.3     1  UNL1        0.0439
     25 C          69.9746   92.5161   14.3546 C.3     1  UNL1        0.0038
     26 C          65.8008   93.0965   13.4949 C.3     1  UNL1        0.1602
     27 N          66.5426   92.7977   12.2259 N.ar    1  UNL1       -0.2278
     28 C          66.1876   93.3001   10.8579 C.ar    1  UNL1        0.1973
     29 N          67.1953   92.7570    9.8886 N.ar    1  UNL1       -0.2007
     30 C          68.1731   91.9188   10.6577 C.ar    1  UNL1        0.2210
     31 N          67.7698   91.9440   12.1022 N.ar    1  UNL1       -0.1451
@<TRIPOS>BOND
     1    23    24    1
     2    24    25    1
     3    24    22    1
     4    22    21    1
     5    21    19    1
     6    19    20    2
     7    19    18    1
     8    18    26    1
     9    26    27    1
    10    27    28   ar
    11    28    29   ar
    12    29    30   ar
    13    30    31   ar
    14    18     1    1
    15     1     2   am
    16     2     3    2
    17     2     5    1
    18     5     6   ar
    19     6     7   ar
    20     7     8   ar
    21     8    11    1
    22    11    12   ar
    23    12    13   ar
    24    13    14   ar
    25    14    15   ar
    26    15    16   ar
    27    16    17    1
    28     8     9   ar
    29     9    10   ar
    30    31    27   ar
    31    10     5   ar
    32    16    11   ar
    33     1     4    1
@<TRIPOS>MOLECULE
*****
 31 33 0 0 0
SMALL
GASTEIGER

@<TRIPOS>ATOM
      1 N          62.9273   88.1688   11.1754 N.am    1  UNL1       -0.2916
      2 C          62.8474   89.3878   12.0458 C.2     1  UNL1        0.2462
      3 O          61.9886   89.3762   13.2756 O.2     1  UNL1       -0.2701
      4 H          63.4909   88.1764   10.3682 H       1  UNL1        0.1502
      5 C          63.6262   90.6184   11.6864 C.ar    1  UNL1        0.0534
      6 C          64.5897   91.2105   12.6717 C.ar    1  UNL1        0.0045
      7 C          65.3685   92.4411   12.3123 C.ar    1  UNL1        0.0002
      8 C          65.1838   93.0795   10.9676 C.ar    1  UNL1        0.0022
      9 C          64.2203   92.4873    9.9822 C.ar    1  UNL1        0.0002
     10 C          63.4415   91.2567   10.3416 C.ar    1  UNL1        0.0045
     11 C          65.9626   94.3101   10.6082 C.ar    1  UNL1        0.0275
     12 C          65.6231   95.6251   11.2448 C.ar    1  UNL1        0.0022
     13 C          66.4019   96.8557   10.8854 C.ar    1  UNL1        0.0001
     14 C          67.5203   96.7712    9.8894 C.ar    1  UNL1        0.0023
     15 C          67.8598   95.4560    9.2528 C.ar    1  UNL1        0.0296
     16 C          67.0810   94.2255    9.6122 C.ar    1  UNL1        0.1401
     17 F          67.4206   92.9104    8.9755 F       1  UNL1       -0.2042
     18 C          62.1484   86.9382   11.5348 C.3     1  UNL1        0.1963
     19 C          62.7867   85.8614   12.3613 C.2     1  UNL1        0.3371
     20 O          63.4798   86.2124   13.6444 O.2     1  UNL1       -0.2482
     21 O          62.7319   84.4337   11.9047 O.3     1  UNL1       -0.4473
     22 C          63.6803   83.4248   12.4815 C.3     1  UNL1        0.2084
     23 C          63.6308   81.0475   13.5282 C.3     1  UNL1        0.0038
     24 C          63.2162   82.4887   13.5578 C.3     1  UNL1        0.0439
     25 C          62.3375   82.9939   14.6636 C.3     1  UNL1        0.0038
     26 C          60.7314   86.7844   11.0676 C.3     1  UNL1        0.1602
     27 N          60.2979   87.4019    9.7712 N.ar    1  UNL1       -0.2278
     28 C          59.7422   86.6675    8.5871 C.ar    1  UNL1        0.1973
     29 N          59.4449   87.6739    7.5153 N.ar    1  UNL1       -0.2007
     30 C          59.8168   89.0302    8.0370 C.ar    1  UNL1        0.2210
     31 N          60.3440   88.8621    9.4312 N.ar    1  UNL1       -0.1451
@<TRIPOS>BOND
     1    23    24    1
     2    24    25    1
     3    24    22    1
     4    22    21    1
     5    21    19    1
     6    19    20    2
     7    19    18    1
     8    18    26    1
     9    26    27    1
    10    27    28   ar
    11    28    29   ar
    12    29    30   ar
    13    30    31   ar
    14    18     1    1
    15     1     2   am
    16     2     3    2
    17     2     5    1
    18     5     6   ar
    19     6     7   ar
    20     7     8   ar
    21     8    11    1
    22    11    12   ar
    23    12    13   ar
    24    13    14   ar
    25    14    15   ar
    26    15    16   ar
    27    16    17    1
    28     8     9   ar
    29     9    10   ar
    30    31    27   ar
    31    10     5   ar
    32    16    11   ar
    33     1     4    1
@<TRIPOS>MOLECULE
*****
 31 33 0 0 0
SMALL
GASTEIGER

@<TRIPOS>ATOM
      1 N          64.6401   89.7622   13.1930 N.am    1  UNL1       -0.2916
      2 C          64.1022   88.8913   14.2894 C.2     1  UNL1        0.2462
      3 O          63.8283   89.4742   15.6441 O.2     1  UNL1       -0.2701
      4 H          64.8199   89.3796   12.3039 H       1  UNL1        0.1502
      5 C          63.8382   87.4374   14.0312 C.ar    1  UNL1        0.0534
      6 C          63.1819   87.0100   12.7519 C.ar    1  UNL1        0.0045
      7 C          62.9179   85.5562   12.4937 C.ar    1  UNL1        0.0002
      8 C          63.3101   84.5298   13.5148 C.ar    1  UNL1        0.0022
      9 C          63.9663   84.9572   14.7941 C.ar    1  UNL1        0.0002
     10 C          64.2304   86.4110   15.0523 C.ar    1  UNL1        0.0045
     11 C          63.0460   83.0759   13.2565 C.ar    1  UNL1        0.0275
     12 C          62.2813   82.2630   14.2587 C.ar    1  UNL1        0.0022
     13 C          62.0173   80.8091   14.0004 C.ar    1  UNL1        0.0001
     14 C          62.5180   80.1683   12.7400 C.ar    1  UNL1        0.0023
     15 C          63.2827   80.9813   11.7379 C.ar    1  UNL1        0.0296
     16 C          63.5467   82.4351   11.9961 C.ar    1  UNL1        0.1401
     17 F          64.3115   83.2481   10.9940 F       1  UNL1       -0.2042
     18 C          64.9042   91.2160   13.4513 C.3     1  UNL1        0.1963
     19 C          64.6567   92.2267   12.3709 C.2     1  UNL1        0.3371
     20 O          65.6047   93.3744   12.1861 O.2     1  UNL1       -0.2482
     21 O          63.4613   92.0897   11.4753 O.3     1  UNL1       -0.4473
     22 C          63.3772   90.9479   10.5061 C.3     1  UNL1        0.2084
     23 C          60.9912   90.3666   11.3541 C.3     1  UNL1        0.0038
     24 C          62.2072   90.0103   10.5514 C.3     1  UNL1        0.0439
     25 C          62.2533   88.7163    9.7940 C.3     1  UNL1        0.0038
     26 C          65.4157   91.6592   14.7899 C.3     1  UNL1        0.1602
     27 N          66.8107   92.1950   14.9198 N.ar    1  UNL1       -0.2278
     28 C          67.9594   91.8949   14.0031 C.ar    1  UNL1        0.1973
     29 N          69.1605   92.6395   14.5059 N.ar    1  UNL1       -0.2007
     30 C          68.7541   93.3998   15.7334 C.ar    1  UNL1        0.2210
     31 N          67.3018   93.1251   15.9892 N.ar    1  UNL1       -0.1451
@<TRIPOS>BOND
     1    23    24    1
     2    24    25    1
     3    24    22    1
     4    22    21    1
     5    21    19    1
     6    19    20    2
     7    19    18    1
     8    18    26    1
     9    26    27    1
    10    27    28   ar
    11    28    29   ar
    12    29    30   ar
    13    30    31   ar
    14    18     1    1
    15     1     2   am
    16     2     3    2
    17     2     5    1
    18     5     6   ar
    19     6     7   ar
    20     7     8   ar
    21     8    11    1
    22    11    12   ar
    23    12    13   ar
    24    13    14   ar
    25    14    15   ar
    26    15    16   ar
    27    16    17    1
    28     8     9   ar
    29     9    10   ar
    30    31    27   ar
    31    10     5   ar
    32    16    11   ar
    33     1     4    1
