@<TRIPOS>MOLECULE
*****
 45 50 0 0 0
SMALL
GASTEIGER

@<TRIPOS>ATOM
      1 C          61.2950   87.3454   10.1391 C.2     1  UNL1        0.0430
      2 C          61.5304   88.8265   10.1740 C.2     1  UNL1       -0.0191
      3 C          60.8080   89.7236    9.2131 C.3     1  UNL1        0.0433
      4 C          59.8501   89.1396    8.2173 C.3     1  UNL1        0.0746
      5 C          58.8923   88.5558    7.2215 C.3     1  UNL1        0.0848
      6 N          58.6569   87.0748    7.1866 N.3     1  UNL1       -0.2949
      7 C          59.3793   86.1777    8.1475 C.3     1  UNL1        0.0892
      8 C          60.3371   86.7616    9.1433 C.3     1  UNL1        0.0969
      9 N          60.5725   88.2425    9.1782 N.3     1  UNL1       -0.2936
     10 H          58.9024   86.7597    6.2481 H       1  UNL1        0.1233
     11 H          61.5702   88.3859    9.0216 H       1  UNL1        0.1236
     12 C          62.4882   89.4103   11.1698 C.ar    1  UNL1       -0.0041
     13 C          62.9555   88.5867   12.3331 C.ar    1  UNL1       -0.0006
     14 C          63.9133   89.1706   13.3289 C.ar    1  UNL1       -0.0043
     15 C          64.4040   90.5781   13.1614 C.ar    1  UNL1       -0.0221
     16 C          63.9367   91.4018   11.9981 C.ar    1  UNL1       -0.0043
     17 C          62.9789   90.8179   11.0023 C.ar    1  UNL1       -0.0006
     18 C          65.3618   91.1620   14.1571 C.3     1  UNL1        0.0302
     19 C          66.6782   91.7143   13.6968 C.3     1  UNL1        0.0520
     20 C          66.8298   93.1866   13.4527 C.3     1  UNL1        0.2059
     21 O          65.9063   93.8880   12.5014 O.3     1  UNL1       -0.4723
     22 C          66.4501   94.5101   11.2495 C.ar    1  UNL1        0.1784
     23 C          66.3614   95.9940   11.0496 C.ar    1  UNL1        0.1748
     24 F          65.7288   96.8560   12.1016 F       1  UNL1       -0.2009
     25 C          66.9052   96.6160    9.7977 C.ar    1  UNL1        0.0351
     26 C          67.5379   95.7541    8.7456 C.ar    1  UNL1        0.0330
     27 C          67.6267   94.2701    8.9455 C.ar    1  UNL1        0.1537
     28 F          68.2593   93.4081    7.8935 F       1  UNL1       -0.2032
     29 C          67.0828   93.6481   10.1975 C.ar    1  UNL1        0.1211
     30 CL         67.1715   92.1641   10.3974 Cl      1  UNL1       -0.0766
     31 O          61.8310   86.6269   12.5776 O.2     1  UNL1       -0.2702
     32 C          62.0174   86.4483   11.0999 C.2     1  UNL1        0.2462
     33 N          62.9262   85.3727   10.5832 N.am    1  UNL1       -0.2738
     34 C          63.1126   85.1942    9.1056 C.3     1  UNL1        0.0760
     35 C          62.7624   84.4912    7.8277 C.3     1  UNL1        0.0215
     36 C          63.7856   85.5880    7.8243 C.3     1  UNL1        0.0215
     37 C          63.6487   84.4756   11.5441 C.3     1  UNL1        0.1212
     38 C          63.2388   83.0394   11.6821 C.ar    1  UNL1        0.0091
     39 C          63.5359   82.0654   10.5807 C.ar    1  UNL1       -0.0017
     40 C          63.1260   80.6291   10.7187 C.ar    1  UNL1        0.0007
     41 C          62.4190   80.1667   11.9582 C.ar    1  UNL1        0.0122
     42 C          62.1219   81.1406   13.0596 C.ar    1  UNL1        0.0679
     43 CL         61.4148   80.6782   14.2991 Cl      1  UNL1       -0.0814
     44 C          62.5318   82.5770   12.9216 C.ar    1  UNL1        0.0658
     45 CL         62.2346   83.5508   14.0231 Cl      1  UNL1       -0.0816
@<TRIPOS>BOND
     1    31    32    2
     2    32     1    1
     3     1     2    2
     4     2    12    1
     5    12    13   ar
     6    13    14   ar
     7    14    15   ar
     8    15    18    1
     9    18    19    1
    10    19    20    1
    11    20    21    1
    12    21    22    1
    13    22    23   ar
    14    23    24    1
    15    23    25   ar
    16    25    26   ar
    17    26    27   ar
    18    27    28    1
    19    27    29   ar
    20    29    30    1
    21    15    16   ar
    22    16    17   ar
    23     2     3    1
    24     4     3    1
    25     4     5    1
    26     5     6    1
    27     6     7    1
    28     8     7    1
    29     8     9    1
    30    32    33   am
    31    33    37    1
    32    37    38    1
    33    38    39   ar
    34    39    40   ar
    35    40    41   ar
    36    41    42   ar
    37    42    43    1
    38    42    44   ar
    39    44    45    1
    40    33    34    1
    41    34    35    1
    42    35    36    1
    43     8     1    1
    44    44    38   ar
    45    36    34    1
    46    17    12   ar
    47     9     4    1
    48    29    22   ar
    49     6    10    1
    50     9    11    1
@<TRIPOS>MOLECULE
*****
 45 50 0 0 0
SMALL
GASTEIGER

@<TRIPOS>ATOM
      1 C          61.4779   87.2778   10.3752 C.2     1  UNL1        0.0430
      2 C          61.6633   88.7651   10.4362 C.2     1  UNL1       -0.0191
      3 C          60.9111   89.6540    9.4906 C.3     1  UNL1        0.0433
      4 C          59.9736   89.0555    8.4840 C.3     1  UNL1        0.0746
      5 C          59.0361   88.4571    7.4775 C.3     1  UNL1        0.0848
      6 N          58.8509   86.9699    7.4166 N.3     1  UNL1       -0.2949
      7 C          59.6030   86.0810    8.3622 C.3     1  UNL1        0.0892
      8 C          60.5405   86.6794    9.3687 C.3     1  UNL1        0.0969
      9 N          60.7258   88.1666    9.4296 N.3     1  UNL1       -0.2936
     10 H          59.1070   86.6797    6.4730 H       1  UNL1        0.1233
     11 H          61.7180   88.3463    9.2763 H       1  UNL1        0.1236
     12 C          62.6007   89.3635   11.4427 C.ar    1  UNL1       -0.0041
     13 C          63.0178   90.7990   11.3185 C.ar    1  UNL1       -0.0006
     14 C          63.9553   91.3974   12.3251 C.ar    1  UNL1       -0.0043
     15 C          64.4757   90.5602   13.4557 C.ar    1  UNL1       -0.0221
     16 C          64.0586   89.1247   13.5799 C.ar    1  UNL1       -0.0043
     17 C          63.1212   88.5264   12.5734 C.ar    1  UNL1       -0.0006
     18 C          65.4131   91.1586   14.4622 C.3     1  UNL1        0.0302
     19 C          66.7657   91.6435   14.0319 C.3     1  UNL1        0.0520
     20 C          66.9691   93.0888   13.6856 C.3     1  UNL1        0.2059
     21 O          66.1236   93.7325   12.6268 O.3     1  UNL1       -0.4723
     22 C          66.6841   93.9584   11.2540 C.ar    1  UNL1        0.1784
     23 C          67.4021   92.8484   10.5451 C.ar    1  UNL1        0.1748
     24 F          67.5597   91.5127   11.2091 F       1  UNL1       -0.2009
     25 C          67.9626   93.0743    9.1722 C.ar    1  UNL1        0.0351
     26 C          67.8051   94.4101    8.5081 C.ar    1  UNL1        0.0330
     27 C          67.0871   95.5200    9.2170 C.ar    1  UNL1        0.1537
     28 F          66.9295   96.8557    8.5531 F       1  UNL1       -0.2032
     29 C          66.5266   95.2941   10.5900 C.ar    1  UNL1        0.1211
     30 CL         65.8086   96.4040   11.2989 Cl      1  UNL1       -0.0766
     31 O          62.1280   86.6113   12.8008 O.2     1  UNL1       -0.2702
     32 C          62.2301   86.3889   11.3208 C.2     1  UNL1        0.2462
     33 N          63.0844   85.2778   10.7866 N.am    1  UNL1       -0.2738
     34 C          63.1864   85.0554    9.3067 C.3     1  UNL1        0.0760
     35 C          63.6038   85.5324    7.9472 C.3     1  UNL1        0.0215
     36 C          62.9459   84.1935    8.1029 C.3     1  UNL1        0.0215
     37 C          63.8365   84.3889   11.7322 C.3     1  UNL1        0.1212
     38 C          63.1684   83.1800   12.3171 C.ar    1  UNL1        0.0091
     39 C          62.4291   83.2874   13.6179 C.ar    1  UNL1       -0.0017
     40 C          61.7609   82.0785   14.2028 C.ar    1  UNL1        0.0007
     41 C          61.8320   80.7623   13.4869 C.ar    1  UNL1        0.0122
     42 C          62.5712   80.6549   12.1862 C.ar    1  UNL1        0.0679
     43 CL         62.6423   79.3386   11.4704 Cl      1  UNL1       -0.0814
     44 C          63.2394   81.8638   11.6012 C.ar    1  UNL1        0.0658
     45 CL         63.9787   81.7564   10.3005 Cl      1  UNL1       -0.0816
@<TRIPOS>BOND
     1    31    32    2
     2    32     1    1
     3     1     2    2
     4     2    12    1
     5    12    13   ar
     6    13    14   ar
     7    14    15   ar
     8    15    18    1
     9    18    19    1
    10    19    20    1
    11    20    21    1
    12    21    22    1
    13    22    23   ar
    14    23    24    1
    15    23    25   ar
    16    25    26   ar
    17    26    27   ar
    18    27    28    1
    19    27    29   ar
    20    29    30    1
    21    15    16   ar
    22    16    17   ar
    23     2     3    1
    24     4     3    1
    25     4     5    1
    26     5     6    1
    27     6     7    1
    28     8     7    1
    29     8     9    1
    30    32    33   am
    31    33    37    1
    32    37    38    1
    33    38    39   ar
    34    39    40   ar
    35    40    41   ar
    36    41    42   ar
    37    42    43    1
    38    42    44   ar
    39    44    45    1
    40    33    34    1
    41    34    35    1
    42    35    36    1
    43     8     1    1
    44    44    38   ar
    45    36    34    1
    46    17    12   ar
    47     9     4    1
    48    29    22   ar
    49     6    10    1
    50     9    11    1
@<TRIPOS>MOLECULE
*****
 45 50 0 0 0
SMALL
GASTEIGER

@<TRIPOS>ATOM
      1 C          64.4727   91.2187   13.7546 C.2     1  UNL1        0.0430
      2 C          65.0240   90.4597   14.9251 C.2     1  UNL1       -0.0191
      3 C          66.2213   90.9830   15.6617 C.3     1  UNL1        0.0433
      4 C          66.8674   92.2654   15.2277 C.3     1  UNL1        0.0746
      5 C          67.5135   93.5476   14.7937 C.3     1  UNL1        0.0848
      6 N          66.9622   94.3065   13.6232 N.3     1  UNL1       -0.2949
      7 C          65.7649   93.7832   12.8867 C.3     1  UNL1        0.0892
      8 C          65.1188   92.5009   13.3206 C.3     1  UNL1        0.0969
      9 N          65.6701   91.7420   14.4911 N.3     1  UNL1       -0.2936
     10 H          67.7166   94.3845   12.9412 H       1  UNL1        0.1233
     11 H          65.9172   90.8131   14.1498 H       1  UNL1        0.1236
     12 C          64.3779   89.1774   15.3591 C.ar    1  UNL1       -0.0041
     13 C          64.6406   87.9107   14.5998 C.ar    1  UNL1       -0.0006
     14 C          63.9945   86.6284   15.0338 C.ar    1  UNL1       -0.0043
     15 C          63.0857   86.6129   16.2270 C.ar    1  UNL1       -0.0221
     16 C          62.8230   87.8795   16.9863 C.ar    1  UNL1       -0.0043
     17 C          63.4691   89.1618   16.5523 C.ar    1  UNL1       -0.0006
     18 C          62.4397   85.3306   16.6609 C.3     1  UNL1        0.0302
     19 C          62.3984   84.1578   15.7266 C.3     1  UNL1        0.0520
     20 C          63.6437   83.3636   15.4645 C.3     1  UNL1        0.2059
     21 O          63.5758   82.1131   14.6388 O.3     1  UNL1       -0.4723
     22 C          63.7095   82.1914   13.1469 C.ar    1  UNL1        0.1784
     23 C          64.4470   83.3367   12.5190 C.ar    1  UNL1        0.1748
     24 F          65.0509   84.4038   13.3831 F       1  UNL1       -0.2009
     25 C          64.5807   83.4150   11.0270 C.ar    1  UNL1        0.0351
     26 C          63.9769   82.3479   10.1629 C.ar    1  UNL1        0.0330
     27 C          63.2393   81.2025   10.7908 C.ar    1  UNL1        0.1537
     28 F          62.6355   80.1354    9.9267 F       1  UNL1       -0.2032
     29 C          63.1056   81.1243   12.2828 C.ar    1  UNL1        0.1211
     30 CL         62.3681   79.9790   12.9107 Cl      1  UNL1       -0.0766
     31 O          62.1936   89.9714   13.7635 O.2     1  UNL1       -0.2702
     32 C          63.2754   90.6953   13.0180 C.2     1  UNL1        0.2462
     33 N          63.1598   90.8959   11.5360 N.am    1  UNL1       -0.2738
     34 C          64.2416   91.6197   10.7905 C.3     1  UNL1        0.0760
     35 C          64.7208   92.8332   10.0504 C.3     1  UNL1        0.0215
     36 C          65.6361   91.6601   10.2395 C.3     1  UNL1        0.0215
     37 C          61.9625   90.3725   10.7994 C.3     1  UNL1        0.1212
     38 C          61.8097   88.8984   10.5679 C.ar    1  UNL1        0.0091
     39 C          62.5705   87.9231   11.4165 C.ar    1  UNL1       -0.0017
     40 C          62.4176   86.4490   11.1849 C.ar    1  UNL1        0.0007
     41 C          61.5040   85.9502   10.1049 C.ar    1  UNL1        0.0122
     42 C          60.7432   86.9254    9.2564 C.ar    1  UNL1        0.0679
     43 CL         59.8296   86.4266    8.1763 Cl      1  UNL1       -0.0814
     44 C          60.8960   88.3996    9.4879 C.ar    1  UNL1        0.0658
     45 CL         60.1353   89.3749    8.6394 Cl      1  UNL1       -0.0816
@<TRIPOS>BOND
     1    31    32    2
     2    32     1    1
     3     1     2    2
     4     2    12    1
     5    12    13   ar
     6    13    14   ar
     7    14    15   ar
     8    15    18    1
     9    18    19    1
    10    19    20    1
    11    20    21    1
    12    21    22    1
    13    22    23   ar
    14    23    24    1
    15    23    25   ar
    16    25    26   ar
    17    26    27   ar
    18    27    28    1
    19    27    29   ar
    20    29    30    1
    21    15    16   ar
    22    16    17   ar
    23     2     3    1
    24     4     3    1
    25     4     5    1
    26     5     6    1
    27     6     7    1
    28     8     7    1
    29     8     9    1
    30    32    33   am
    31    33    37    1
    32    37    38    1
    33    38    39   ar
    34    39    40   ar
    35    40    41   ar
    36    41    42   ar
    37    42    43    1
    38    42    44   ar
    39    44    45    1
    40    33    34    1
    41    34    35    1
    42    35    36    1
    43     8     1    1
    44    44    38   ar
    45    36    34    1
    46    17    12   ar
    47     9     4    1
    48    29    22   ar
    49     6    10    1
    50     9    11    1
@<TRIPOS>MOLECULE
*****
 45 50 0 0 0
SMALL
GASTEIGER

@<TRIPOS>ATOM
      1 C          63.2467   87.1555   12.8419 C.2     1  UNL1        0.0430
      2 C          62.3866   86.2162   12.0494 C.2     1  UNL1       -0.0191
      3 C          62.2958   84.7711   12.4413 C.3     1  UNL1        0.0433
      4 C          63.0649   84.2654   13.6257 C.3     1  UNL1        0.0746
      5 C          63.8340   83.7598   14.8100 C.3     1  UNL1        0.0848
      6 N          64.6940   84.6991   15.6025 N.3     1  UNL1       -0.2949
      7 C          64.7848   86.1442   15.2106 C.3     1  UNL1        0.0892
      8 C          64.0158   86.6499   14.0263 C.3     1  UNL1        0.0969
      9 N          63.1558   85.7105   13.2338 N.3     1  UNL1       -0.2936
     10 H          65.6427   84.3258   15.5728 H       1  UNL1        0.1233
     11 H          63.5006   85.7342   12.2742 H       1  UNL1        0.1236
     12 C          61.6175   86.7219   10.8650 C.ar    1  UNL1       -0.0041
     13 C          60.5190   87.7250   11.0569 C.ar    1  UNL1       -0.0006
     14 C          59.7499   88.2307    9.8724 C.ar    1  UNL1       -0.0043
     15 C          60.0793   87.7332    8.4962 C.ar    1  UNL1       -0.0221
     16 C          61.1779   86.7301    8.3044 C.ar    1  UNL1       -0.0043
     17 C          61.9470   86.2244    9.4888 C.ar    1  UNL1       -0.0006
     18 C          59.3102   88.2389    7.3119 C.3     1  UNL1        0.0302
     19 C          59.3450   89.6972    6.9621 C.3     1  UNL1        0.0520
     20 C          59.6399   90.1239    5.5546 C.3     1  UNL1        0.2059
     21 O          60.9167   90.8465    5.2419 O.3     1  UNL1       -0.4723
     22 C          61.0035   91.7257    4.0298 C.ar    1  UNL1        0.1784
     23 C          59.8609   92.6313    3.6767 C.ar    1  UNL1        0.1748
     24 F          58.6317   92.6576    4.5359 F       1  UNL1       -0.2009
     25 C          59.9477   93.5104    2.4645 C.ar    1  UNL1        0.0351
     26 C          61.1770   93.4841    1.6053 C.ar    1  UNL1        0.0330
     27 C          62.3195   92.5786    1.9583 C.ar    1  UNL1        0.1537
     28 F          63.5488   92.5522    1.0992 F       1  UNL1       -0.2032
     29 C          62.2327   91.6993    3.1706 C.ar    1  UNL1        0.1211
     30 CL         63.3752   90.7938    3.5236 Cl      1  UNL1       -0.0766
     31 O          63.5598   88.9759   11.0148 O.2     1  UNL1       -0.2702
     32 C          63.3375   88.6006   12.4500 C.2     1  UNL1        0.2462
     33 N          63.2061   89.6703   13.4933 N.am    1  UNL1       -0.2738
     34 C          62.9838   89.2950   14.9284 C.3     1  UNL1        0.0760
     35 C          63.4730   89.2299   16.3449 C.3     1  UNL1        0.0215
     36 C          62.1096   88.7099   15.9977 C.3     1  UNL1        0.0215
     37 C          63.2969   91.1153   13.1014 C.3     1  UNL1        0.1212
     38 C          64.5857   91.6686   12.5696 C.ar    1  UNL1        0.0091
     39 C          64.6776   92.1140   11.1401 C.ar    1  UNL1       -0.0017
     40 C          65.9664   92.6672   10.6083 C.ar    1  UNL1        0.0007
     41 C          67.1634   92.7752   11.5059 C.ar    1  UNL1        0.0122
     42 C          67.0715   92.3299   12.9353 C.ar    1  UNL1        0.0679
     43 CL         68.2685   92.4378   13.8329 Cl      1  UNL1       -0.0814
     44 C          65.7827   91.7766   13.4672 C.ar    1  UNL1        0.0658
     45 CL         65.6908   91.3312   14.8966 Cl      1  UNL1       -0.0816
@<TRIPOS>BOND
     1    31    32    2
     2    32     1    1
     3     1     2    2
     4     2    12    1
     5    12    13   ar
     6    13    14   ar
     7    14    15   ar
     8    15    18    1
     9    18    19    1
    10    19    20    1
    11    20    21    1
    12    21    22    1
    13    22    23   ar
    14    23    24    1
    15    23    25   ar
    16    25    26   ar
    17    26    27   ar
    18    27    28    1
    19    27    29   ar
    20    29    30    1
    21    15    16   ar
    22    16    17   ar
    23     2     3    1
    24     4     3    1
    25     4     5    1
    26     5     6    1
    27     6     7    1
    28     8     7    1
    29     8     9    1
    30    32    33   am
    31    33    37    1
    32    37    38    1
    33    38    39   ar
    34    39    40   ar
    35    40    41   ar
    36    41    42   ar
    37    42    43    1
    38    42    44   ar
    39    44    45    1
    40    33    34    1
    41    34    35    1
    42    35    36    1
    43     8     1    1
    44    44    38   ar
    45    36    34    1
    46    17    12   ar
    47     9     4    1
    48    29    22   ar
    49     6    10    1
    50     9    11    1
@<TRIPOS>MOLECULE
*****
 45 50 0 0 0
SMALL
GASTEIGER

@<TRIPOS>ATOM
      1 C          63.2570   87.0908   12.8435 C.2     1  UNL1        0.0430
      2 C          62.4021   86.1511   12.0458 C.2     1  UNL1       -0.0191
      3 C          62.3127   84.7052   12.4347 C.3     1  UNL1        0.0433
      4 C          63.0781   84.1989   13.6213 C.3     1  UNL1        0.0746
      5 C          63.8435   83.6927   14.8078 C.3     1  UNL1        0.0848
      6 N          64.6983   84.6323   15.6054 N.3     1  UNL1       -0.2949
      7 C          64.7878   86.0783   15.2165 C.3     1  UNL1        0.0892
      8 C          64.0224   86.5845   14.0300 C.3     1  UNL1        0.0969
      9 N          63.1676   85.6449   13.2324 N.3     1  UNL1       -0.2936
     10 H          65.6479   84.2610   15.5789 H       1  UNL1        0.1233
     11 H          63.5162   85.6710   12.2742 H       1  UNL1        0.1236
     12 C          61.6368   86.6574   10.8593 C.ar    1  UNL1       -0.0041
     13 C          61.9791   86.1703    9.4825 C.ar    1  UNL1       -0.0006
     14 C          61.2136   86.6766    8.2960 C.ar    1  UNL1       -0.0043
     15 C          60.1060   87.6700    8.4863 C.ar    1  UNL1       -0.0221
     16 C          59.7636   88.1571    9.8631 C.ar    1  UNL1       -0.0043
     17 C          60.5290   87.6508   11.0496 C.ar    1  UNL1       -0.0006
     18 C          59.3406   88.1762    7.2998 C.3     1  UNL1        0.0302
     19 C          59.3544   89.6387    6.9667 C.3     1  UNL1        0.0520
     20 C          59.6262   90.0852    5.5606 C.3     1  UNL1        0.2059
     21 O          60.9005   90.8068    5.2360 O.3     1  UNL1       -0.4723
     22 C          60.9752   91.6892    4.0253 C.ar    1  UNL1        0.1784
     23 C          59.8183   92.5758    3.6708 C.ar    1  UNL1        0.1748
     24 F          58.5868   92.5800    4.5271 F       1  UNL1       -0.2009
     25 C          59.8931   93.4581    2.4602 C.ar    1  UNL1        0.0351
     26 C          61.1247   93.4539    1.6039 C.ar    1  UNL1        0.0330
     27 C          62.2815   92.5674    1.9583 C.ar    1  UNL1        0.1537
     28 F          63.5131   92.5631    1.1021 F       1  UNL1       -0.2032
     29 C          62.2068   91.6849    3.1691 C.ar    1  UNL1        0.1211
     30 CL         63.3636   90.7984    3.5235 Cl      1  UNL1       -0.0766
     31 O          63.5297   88.9162   11.0150 O.2     1  UNL1       -0.2702
     32 C          63.3465   88.5368   12.4546 C.2     1  UNL1        0.2462
     33 N          63.2528   89.6032   13.5053 N.am    1  UNL1       -0.2738
     34 C          63.0696   89.2237   14.9448 C.3     1  UNL1        0.0760
     35 C          62.2283   88.6273   16.0341 C.3     1  UNL1        0.0215
     36 C          63.5936   89.1627   16.3490 C.3     1  UNL1        0.0215
     37 C          63.3422   91.0491   13.1164 C.3     1  UNL1        0.1212
     38 C          64.6802   91.6729   12.8505 C.ar    1  UNL1        0.0091
     39 C          65.6985   91.7601   13.9485 C.ar    1  UNL1       -0.0017
     40 C          67.0365   92.3839   13.6826 C.ar    1  UNL1        0.0007
     41 C          67.3562   92.9204   12.3188 C.ar    1  UNL1        0.0122
     42 C          66.3380   92.8332   11.2209 C.ar    1  UNL1        0.0679
     43 CL         66.6577   93.3697    9.8571 Cl      1  UNL1       -0.0814
     44 C          64.9999   92.2094   11.4867 C.ar    1  UNL1        0.0658
     45 CL         63.9817   92.1221   10.3888 Cl      1  UNL1       -0.0816
@<TRIPOS>BOND
     1    31    32    2
     2    32     1    1
     3     1     2    2
     4     2    12    1
     5    12    13   ar
     6    13    14   ar
     7    14    15   ar
     8    15    18    1
     9    18    19    1
    10    19    20    1
    11    20    21    1
    12    21    22    1
    13    22    23   ar
    14    23    24    1
    15    23    25   ar
    16    25    26   ar
    17    26    27   ar
    18    27    28    1
    19    27    29   ar
    20    29    30    1
    21    15    16   ar
    22    16    17   ar
    23     2     3    1
    24     4     3    1
    25     4     5    1
    26     5     6    1
    27     6     7    1
    28     8     7    1
    29     8     9    1
    30    32    33   am
    31    33    37    1
    32    37    38    1
    33    38    39   ar
    34    39    40   ar
    35    40    41   ar
    36    41    42   ar
    37    42    43    1
    38    42    44   ar
    39    44    45    1
    40    33    34    1
    41    34    35    1
    42    35    36    1
    43     8     1    1
    44    44    38   ar
    45    36    34    1
    46    17    12   ar
    47     9     4    1
    48    29    22   ar
    49     6    10    1
    50     9    11    1
@<TRIPOS>MOLECULE
*****
 45 50 0 0 0
SMALL
GASTEIGER

@<TRIPOS>ATOM
      1 C          61.2054   88.1299    9.3921 C.2     1  UNL1        0.0430
      2 C          61.0385   86.6612    9.1369 C.2     1  UNL1       -0.0191
      3 C          60.0341   86.1842    8.1302 C.3     1  UNL1        0.0433
      4 C          59.1964   87.1760    7.3786 C.3     1  UNL1        0.0746
      5 C          58.3588   88.1677    6.6270 C.3     1  UNL1        0.0848
      6 N          58.5257   89.6364    6.8822 N.3     1  UNL1       -0.2949
      7 C          59.5301   90.1133    7.8890 C.3     1  UNL1        0.0892
      8 C          60.3677   89.1216    8.6406 C.3     1  UNL1        0.0969
      9 N          60.2009   87.6530    8.3853 N.3     1  UNL1       -0.2936
     10 H          57.6169   89.9879    7.1837 H       1  UNL1        0.1233
     11 H          59.9498   87.2258    9.2769 H       1  UNL1        0.1236
     12 C          61.8761   85.6695    9.8885 C.ar    1  UNL1       -0.0041
     13 C          61.6339   85.4386   11.3507 C.ar    1  UNL1       -0.0006
     14 C          62.4716   84.4468   12.1022 C.ar    1  UNL1       -0.0043
     15 C          63.5514   83.6860   11.3916 C.ar    1  UNL1       -0.0221
     16 C          63.7937   83.9169    9.9294 C.ar    1  UNL1       -0.0043
     17 C          62.9561   84.9086    9.1779 C.ar    1  UNL1       -0.0006
     18 C          64.3891   82.6943   12.1432 C.3     1  UNL1        0.0302
     19 C          64.4741   82.7654   13.6391 C.3     1  UNL1        0.0520
     20 C          65.0452   83.9845   14.3007 C.3     1  UNL1        0.2059
     21 O          64.3502   85.3068   14.1646 O.3     1  UNL1       -0.4723
     22 C          63.7017   85.9398   15.3598 C.ar    1  UNL1        0.1784
     23 C          62.8585   85.1108   16.2827 C.ar    1  UNL1        0.1748
     24 F          62.6638   83.6487   16.0103 F       1  UNL1       -0.2009
     25 C          62.2101   85.7439   17.4779 C.ar    1  UNL1        0.0351
     26 C          62.4048   87.2061   17.7503 C.ar    1  UNL1        0.0330
     27 C          63.2480   88.0351   16.8274 C.ar    1  UNL1        0.1537
     28 F          63.4427   89.4973   17.0998 F       1  UNL1       -0.2032
     29 C          63.8964   87.4020   15.6321 C.ar    1  UNL1        0.1211
     30 CL         64.7396   88.2310   14.7093 Cl      1  UNL1       -0.0766
     31 O          63.6589   88.2545   10.2375 O.2     1  UNL1       -0.2702
     32 C          62.2098   88.6069   10.3989 C.2     1  UNL1        0.2462
     33 N          61.7652   89.4361   11.5670 N.am    1  UNL1       -0.2738
     34 C          60.3162   89.7885   11.7284 C.3     1  UNL1        0.0760
     35 C          58.9313   89.4201   12.1717 C.3     1  UNL1        0.0215
     36 C          59.1912   90.7669   11.5647 C.3     1  UNL1        0.0215
     37 C          62.7697   89.9131   12.5738 C.3     1  UNL1        0.1212
     38 C          63.7409   90.9964   12.2090 C.ar    1  UNL1        0.0091
     39 C          63.8471   91.4607   10.7866 C.ar    1  UNL1       -0.0017
     40 C          64.8183   92.5441   10.4218 C.ar    1  UNL1        0.0007
     41 C          65.6833   93.1632   11.4794 C.ar    1  UNL1        0.0122
     42 C          65.5771   92.6989   12.9018 C.ar    1  UNL1        0.0679
     43 CL         66.4421   93.3180   13.9594 Cl      1  UNL1       -0.0814
     44 C          64.6059   91.6155   13.2666 C.ar    1  UNL1        0.0658
     45 CL         64.4997   91.1512   14.6890 Cl      1  UNL1       -0.0816
@<TRIPOS>BOND
     1    31    32    2
     2    32     1    1
     3     1     2    2
     4     2    12    1
     5    12    13   ar
     6    13    14   ar
     7    14    15   ar
     8    15    18    1
     9    18    19    1
    10    19    20    1
    11    20    21    1
    12    21    22    1
    13    22    23   ar
    14    23    24    1
    15    23    25   ar
    16    25    26   ar
    17    26    27   ar
    18    27    28    1
    19    27    29   ar
    20    29    30    1
    21    15    16   ar
    22    16    17   ar
    23     2     3    1
    24     4     3    1
    25     4     5    1
    26     5     6    1
    27     6     7    1
    28     8     7    1
    29     8     9    1
    30    32    33   am
    31    33    37    1
    32    37    38    1
    33    38    39   ar
    34    39    40   ar
    35    40    41   ar
    36    41    42   ar
    37    42    43    1
    38    42    44   ar
    39    44    45    1
    40    33    34    1
    41    34    35    1
    42    35    36    1
    43     8     1    1
    44    44    38   ar
    45    36    34    1
    46    17    12   ar
    47     9     4    1
    48    29    22   ar
    49     6    10    1
    50     9    11    1
@<TRIPOS>MOLECULE
*****
 45 50 0 0 0
SMALL
GASTEIGER

@<TRIPOS>ATOM
      1 C          64.2078   90.9485   13.6351 C.2     1  UNL1        0.0430
      2 C          64.9548   90.1406   14.6546 C.2     1  UNL1       -0.0191
      3 C          66.3203   90.5729   15.1001 C.3     1  UNL1        0.0433
      4 C          66.9388   91.8132   14.5261 C.3     1  UNL1        0.0746
      5 C          67.5572   93.0534   13.9522 C.3     1  UNL1        0.0848
      6 N          66.8101   93.8612   12.9328 N.3     1  UNL1       -0.2949
      7 C          65.4446   93.4289   12.4873 C.3     1  UNL1        0.0892
      8 C          64.8262   92.1887   13.0612 C.3     1  UNL1        0.0969
      9 N          65.5733   91.3808   14.0806 N.3     1  UNL1       -0.2936
     10 H          67.3951   93.8954   12.0979 H       1  UNL1        0.1233
     11 H          65.6727   90.4412   13.6964 H       1  UNL1        0.1236
     12 C          64.3364   88.9004   15.2285 C.ar    1  UNL1       -0.0041
     13 C          63.4683   88.9907   16.4484 C.ar    1  UNL1       -0.0006
     14 C          62.8498   87.7504   17.0223 C.ar    1  UNL1       -0.0043
     15 C          63.0995   86.4199   16.3763 C.ar    1  UNL1       -0.0221
     16 C          63.9676   86.3296   15.1564 C.ar    1  UNL1       -0.0043
     17 C          64.5861   87.5698   14.5825 C.ar    1  UNL1       -0.0006
     18 C          62.4811   85.1797   16.9502 C.3     1  UNL1        0.0302
     19 C          62.9886   83.8293   16.5393 C.3     1  UNL1        0.0520
     20 C          62.6166   83.2638   15.2007 C.3     1  UNL1        0.2059
     21 O          63.2792   82.0128   14.7046 O.3     1  UNL1       -0.4723
     22 C          63.3165   81.7161   13.2348 C.ar    1  UNL1        0.1784
     23 C          62.7029   80.4524   12.7089 C.ar    1  UNL1        0.1748
     24 F          62.0520   79.4854   13.6528 F       1  UNL1       -0.2009
     25 C          62.7402   80.1557   11.2390 C.ar    1  UNL1        0.0351
     26 C          63.3912   81.1228   10.2950 C.ar    1  UNL1        0.0330
     27 C          64.0048   82.3865   10.8208 C.ar    1  UNL1        0.1537
     28 F          64.6557   83.3535    9.8769 F       1  UNL1       -0.2032
     29 C          63.9674   82.6831   12.2908 C.ar    1  UNL1        0.1211
     30 CL         64.5810   83.9468   12.8167 Cl      1  UNL1       -0.0766
     31 O          61.8760   89.9421   14.1831 O.2     1  UNL1       -0.2702
     32 C          62.8422   90.5161   13.1896 C.2     1  UNL1        0.2462
     33 N          62.4430   90.6578   11.7507 N.am    1  UNL1       -0.2738
     34 C          63.4092   91.2318   10.7574 C.3     1  UNL1        0.0760
     35 C          63.7413   92.2503    9.7074 C.3     1  UNL1        0.0215
     36 C          64.7506   91.2076   10.0866 C.3     1  UNL1        0.0215
     37 C          61.0775   90.2254   11.3053 C.3     1  UNL1        0.1212
     38 C          60.9313   89.1289   10.2923 C.ar    1  UNL1        0.0091
     39 C          59.9953   89.2991    9.1325 C.ar    1  UNL1       -0.0017
     40 C          59.8491   88.2025    8.1195 C.ar    1  UNL1        0.0007
     41 C          60.6388   86.9357    8.2663 C.ar    1  UNL1        0.0122
     42 C          61.5747   86.7654    9.4261 C.ar    1  UNL1        0.0679
     43 CL         62.3644   85.4986    9.5729 Cl      1  UNL1       -0.0814
     44 C          61.7210   87.8620   10.4391 C.ar    1  UNL1        0.0658
     45 CL         62.6569   87.6918   11.5989 Cl      1  UNL1       -0.0816
@<TRIPOS>BOND
     1    31    32    2
     2    32     1    1
     3     1     2    2
     4     2    12    1
     5    12    13   ar
     6    13    14   ar
     7    14    15   ar
     8    15    18    1
     9    18    19    1
    10    19    20    1
    11    20    21    1
    12    21    22    1
    13    22    23   ar
    14    23    24    1
    15    23    25   ar
    16    25    26   ar
    17    26    27   ar
    18    27    28    1
    19    27    29   ar
    20    29    30    1
    21    15    16   ar
    22    16    17   ar
    23     2     3    1
    24     4     3    1
    25     4     5    1
    26     5     6    1
    27     6     7    1
    28     8     7    1
    29     8     9    1
    30    32    33   am
    31    33    37    1
    32    37    38    1
    33    38    39   ar
    34    39    40   ar
    35    40    41   ar
    36    41    42   ar
    37    42    43    1
    38    42    44   ar
    39    44    45    1
    40    33    34    1
    41    34    35    1
    42    35    36    1
    43     8     1    1
    44    44    38   ar
    45    36    34    1
    46    17    12   ar
    47     9     4    1
    48    29    22   ar
    49     6    10    1
    50     9    11    1
@<TRIPOS>MOLECULE
*****
 45 50 0 0 0
SMALL
GASTEIGER

@<TRIPOS>ATOM
      1 C          61.3896   88.0541    9.8621 C.2     1  UNL1        0.0430
      2 C          61.3003   86.6103    9.4651 C.2     1  UNL1       -0.0191
      3 C          60.4772   86.2087    8.2771 C.3     1  UNL1        0.0433
      4 C          59.7436   87.2509    7.4861 C.3     1  UNL1        0.0746
      5 C          59.0100   88.2930    6.6950 C.3     1  UNL1        0.0848
      6 N          59.0994   89.7367    7.0920 N.3     1  UNL1       -0.2949
      7 C          59.9224   90.1383    8.2800 C.3     1  UNL1        0.0892
      8 C          60.6560   89.0962    9.0711 C.3     1  UNL1        0.0969
      9 N          60.5666   87.6525    8.6741 N.3     1  UNL1       -0.2936
     10 H          58.1464   90.0516    7.2740 H       1  UNL1        0.1233
     11 H          60.1897   87.1491    9.4771 H       1  UNL1        0.1236
     12 C          62.0339   85.5682   10.2561 C.ar    1  UNL1       -0.0041
     13 C          61.7577   85.4066   11.7216 C.ar    1  UNL1       -0.0006
     14 C          62.4914   84.3644   12.5126 C.ar    1  UNL1       -0.0043
     15 C          63.5012   83.4839   11.8382 C.ar    1  UNL1       -0.0221
     16 C          63.7774   83.6455   10.3727 C.ar    1  UNL1       -0.0043
     17 C          63.0437   84.6876    9.5817 C.ar    1  UNL1       -0.0006
     18 C          64.2348   82.4418   12.6292 C.3     1  UNL1        0.0302
     19 C          63.5736   81.7919   13.8084 C.3     1  UNL1        0.0520
     20 C          62.8613   82.6325   14.8264 C.3     1  UNL1        0.2059
     21 O          63.6461   83.3798   15.8635 O.3     1  UNL1       -0.4723
     22 C          63.8968   84.8496   15.6995 C.ar    1  UNL1        0.1784
     23 C          64.9769   85.3275   14.7747 C.ar    1  UNL1        0.1748
     24 F          65.8061   84.3358   14.0141 F       1  UNL1       -0.2009
     25 C          65.2276   86.7973   14.6107 C.ar    1  UNL1        0.0351
     26 C          64.3983   87.7891   15.3714 C.ar    1  UNL1        0.0330
     27 C          63.3183   87.3112   16.2961 C.ar    1  UNL1        0.1537
     28 F          62.4891   88.3029   17.0568 F       1  UNL1       -0.2032
     29 C          63.0676   85.8413   16.4601 C.ar    1  UNL1        0.1211
     30 CL         61.9876   85.3634   17.3849 Cl      1  UNL1       -0.0766
     31 O          63.6241   87.9659   11.1848 O.2     1  UNL1       -0.2702
     32 C          62.2127   88.4557   11.0501 C.2     1  UNL1        0.2462
     33 N          61.6243   89.3470   12.1033 N.am    1  UNL1       -0.2738
     34 C          60.2130   89.8367   11.9686 C.3     1  UNL1        0.0760
     35 C          58.7395   89.6170   12.1432 C.3     1  UNL1        0.0215
     36 C          59.2419   90.9046   11.5606 C.3     1  UNL1        0.0215
     37 C          62.4473   89.7486   13.2913 C.3     1  UNL1        0.1212
     38 C          63.6693   90.5982   13.1046 C.ar    1  UNL1        0.0091
     39 C          64.7141   90.6560   14.1794 C.ar    1  UNL1       -0.0017
     40 C          65.9360   91.5057   13.9926 C.ar    1  UNL1        0.0007
     41 C          66.1132   92.2975   12.7310 C.ar    1  UNL1        0.0122
     42 C          65.0685   92.2398   11.6563 C.ar    1  UNL1        0.0679
     43 CL         65.2458   93.0317   10.3947 Cl      1  UNL1       -0.0814
     44 C          63.8465   91.3901   11.8430 C.ar    1  UNL1        0.0658
     45 CL         62.8018   91.3324   10.7682 Cl      1  UNL1       -0.0816
@<TRIPOS>BOND
     1    31    32    2
     2    32     1    1
     3     1     2    2
     4     2    12    1
     5    12    13   ar
     6    13    14   ar
     7    14    15   ar
     8    15    18    1
     9    18    19    1
    10    19    20    1
    11    20    21    1
    12    21    22    1
    13    22    23   ar
    14    23    24    1
    15    23    25   ar
    16    25    26   ar
    17    26    27   ar
    18    27    28    1
    19    27    29   ar
    20    29    30    1
    21    15    16   ar
    22    16    17   ar
    23     2     3    1
    24     4     3    1
    25     4     5    1
    26     5     6    1
    27     6     7    1
    28     8     7    1
    29     8     9    1
    30    32    33   am
    31    33    37    1
    32    37    38    1
    33    38    39   ar
    34    39    40   ar
    35    40    41   ar
    36    41    42   ar
    37    42    43    1
    38    42    44   ar
    39    44    45    1
    40    33    34    1
    41    34    35    1
    42    35    36    1
    43     8     1    1
    44    44    38   ar
    45    36    34    1
    46    17    12   ar
    47     9     4    1
    48    29    22   ar
    49     6    10    1
    50     9    11    1
@<TRIPOS>MOLECULE
*****
 45 50 0 0 0
SMALL
GASTEIGER

@<TRIPOS>ATOM
      1 C          63.4012   87.2323   12.9996 C.2     1  UNL1        0.0430
      2 C          62.4912   86.4978   12.0601 C.2     1  UNL1       -0.0191
      3 C          62.3577   85.0070   12.1576 C.3     1  UNL1        0.0433
      4 C          63.1340   84.2506   13.1946 C.3     1  UNL1        0.0746
      5 C          63.9104   83.4943   14.2315 C.3     1  UNL1        0.0848
      6 N          64.8203   84.2288   15.1709 N.3     1  UNL1       -0.2949
      7 C          64.9539   85.7197   15.0734 C.3     1  UNL1        0.0892
      8 C          64.1775   86.4760   14.0365 C.3     1  UNL1        0.0969
      9 N          63.2676   85.7415   13.0971 N.3     1  UNL1       -0.2936
     10 H          65.7543   83.8404   15.0402 H       1  UNL1        0.1233
     11 H          63.5920   85.9468   12.1521 H       1  UNL1        0.1236
     12 C          61.7149   87.2541   11.0232 C.ar    1  UNL1       -0.0041
     13 C          61.8212   86.8686    9.5775 C.ar    1  UNL1       -0.0006
     14 C          61.0448   87.6250    8.5405 C.ar    1  UNL1       -0.0043
     15 C          60.1622   88.7668    8.9493 C.ar    1  UNL1       -0.0221
     16 C          60.0559   89.1524   10.3950 C.ar    1  UNL1       -0.0043
     17 C          60.8322   88.3960   11.4320 C.ar    1  UNL1       -0.0006
     18 C          59.3859   89.5232    7.9124 C.3     1  UNL1        0.0302
     19 C          59.5595   89.1960    6.4588 C.3     1  UNL1        0.0520
     20 C          59.7271   90.2994    5.4566 C.3     1  UNL1        0.2059
     21 O          61.0848   90.8863    5.2072 O.3     1  UNL1       -0.4723
     22 C          61.3493   91.6561    3.9473 C.ar    1  UNL1        0.1784
     23 C          62.6384   91.4608    3.2057 C.ar    1  UNL1        0.1748
     24 F          63.6630   90.4957    3.7238 F       1  UNL1       -0.2009
     25 C          62.9029   92.2307    1.9458 C.ar    1  UNL1        0.0351
     26 C          61.8782   93.1959    1.4275 C.ar    1  UNL1        0.0330
     27 C          60.5891   93.3912    2.1692 C.ar    1  UNL1        0.1537
     28 F          59.5645   94.3564    1.6510 F       1  UNL1       -0.2032
     29 C          60.3247   92.6213    3.4292 C.ar    1  UNL1        0.1211
     30 CL         59.0356   92.8166    4.1708 Cl      1  UNL1       -0.0766
     31 O          63.7657   89.3699   11.5684 O.2     1  UNL1       -0.2702
     32 C          63.5348   88.7232   12.9020 C.2     1  UNL1        0.2462
     33 N          63.4375   89.5674   14.1381 N.am    1  UNL1       -0.2738
     34 C          63.2066   88.9207   15.4716 C.3     1  UNL1        0.0760
     35 C          63.3142   88.9538   16.9674 C.3     1  UNL1        0.0215
     36 C          62.6991   87.7676   16.2857 C.3     1  UNL1        0.0215
     37 C          63.5710   91.0582   14.0405 C.3     1  UNL1        0.1212
     38 C          64.9300   91.6840   13.9329 C.ar    1  UNL1        0.0091
     39 C          65.5880   91.8223   12.5920 C.ar    1  UNL1       -0.0017
     40 C          66.9469   92.4481   12.4844 C.ar    1  UNL1        0.0007
     41 C          67.6479   92.9357   13.7177 C.ar    1  UNL1        0.0122
     42 C          66.9900   92.7974   15.0585 C.ar    1  UNL1        0.0679
     43 CL         67.6909   93.2850   16.2918 Cl      1  UNL1       -0.0814
     44 C          65.6310   92.1716   15.1662 C.ar    1  UNL1        0.0658
     45 CL         64.9730   92.0333   16.5070 Cl      1  UNL1       -0.0816
@<TRIPOS>BOND
     1    31    32    2
     2    32     1    1
     3     1     2    2
     4     2    12    1
     5    12    13   ar
     6    13    14   ar
     7    14    15   ar
     8    15    18    1
     9    18    19    1
    10    19    20    1
    11    20    21    1
    12    21    22    1
    13    22    23   ar
    14    23    24    1
    15    23    25   ar
    16    25    26   ar
    17    26    27   ar
    18    27    28    1
    19    27    29   ar
    20    29    30    1
    21    15    16   ar
    22    16    17   ar
    23     2     3    1
    24     4     3    1
    25     4     5    1
    26     5     6    1
    27     6     7    1
    28     8     7    1
    29     8     9    1
    30    32    33   am
    31    33    37    1
    32    37    38    1
    33    38    39   ar
    34    39    40   ar
    35    40    41   ar
    36    41    42   ar
    37    42    43    1
    38    42    44   ar
    39    44    45    1
    40    33    34    1
    41    34    35    1
    42    35    36    1
    43     8     1    1
    44    44    38   ar
    45    36    34    1
    46    17    12   ar
    47     9     4    1
    48    29    22   ar
    49     6    10    1
    50     9    11    1
