@<TRIPOS>MOLECULE
*****
 43 47 0 0 0
SMALL
GASTEIGER

@<TRIPOS>ATOM
      1 C          59.9891   92.8629    1.4720 C.2     1  UNL1        0.2254
      2 O          60.2285   91.4188    1.1445 O.2     1  UNL1       -0.2748
      3 N          59.6075   93.2624    2.8666 N.am    1  UNL1       -0.3056
      4 H          59.4504   94.2102    3.0815 H       1  UNL1        0.1494
      5 N          58.5179   95.2176   -1.7583 N.3     1  UNL1       -0.2706
      6 C          59.9457   95.6214   -1.5387 C.3     1  UNL1        0.0731
      7 C          60.7525   94.9664   -0.4570 C.3     1  UNL1        0.0301
      8 C          60.1314   93.9075    0.4050 C.3     1  UNL1        0.0902
      9 C          58.7036   93.5037    0.1854 C.3     1  UNL1        0.0301
     10 C          57.8969   94.1588   -0.8963 C.3     1  UNL1        0.0731
     11 C          61.5099   93.9485    0.9952 C.ar    1  UNL1       -0.0145
     12 C          62.1107   95.2598    1.4069 C.ar    1  UNL1       -0.0038
     13 C          63.4891   95.3009    1.9971 C.ar    1  UNL1       -0.0003
     14 C          64.2666   94.0306    2.1756 C.ar    1  UNL1       -0.0000
     15 C          63.6658   92.7193    1.7639 C.ar    1  UNL1       -0.0003
     16 C          62.2874   92.6783    1.1737 C.ar    1  UNL1       -0.0038
     17 C          57.1404   96.8290   -1.8351 C.3     1  UNL1        0.0217
     18 C          57.7111   95.8727   -2.8400 C.3     1  UNL1        0.0775
     19 C          58.2818   94.9163   -3.8448 C.3     1  UNL1        0.0217
     20 C          56.9043   96.5277   -3.9216 C.2     1  UNL1        0.0632
     21 O          55.4594   96.8546   -3.6861 O.co2   1  UNL1       -0.5479
     22 O          57.5423   96.8559   -5.2389 O.co2   1  UNL1       -0.5479
     23 C          59.4651   92.2177    3.9336 C.3     1  UNL1        0.0743
     24 C          60.6781   91.4999    4.4469 C.3     1  UNL1        0.0369
     25 C          60.5358   90.4552    5.5139 C.3     1  UNL1        0.0741
     26 N          59.1805   90.1285    6.0676 N.3     1  UNL1       -0.2688
     27 C          57.9676   90.8464    5.5543 C.3     1  UNL1        0.0741
     28 C          58.1099   91.8910    4.4872 C.3     1  UNL1        0.0369
     29 C          59.0382   89.0839    7.1346 C.3     1  UNL1        0.0992
     30 C          60.1231   88.9005    8.1541 C.ar    1  UNL1       -0.0031
     31 C          60.7239   87.5437    8.3743 C.ar    1  UNL1       -0.0027
     32 C          61.8088   87.3604    9.3938 C.ar    1  UNL1        0.0029
     33 C          62.2930   88.5337   10.1931 C.ar    1  UNL1        0.0375
     34 C          61.6922   89.8905    9.9728 C.ar    1  UNL1        0.1451
     35 C          60.6073   90.0739    8.9534 C.ar    1  UNL1        0.0346
     36 O          62.1764   91.0637   10.7721 O.3     1  UNL1       -0.4527
     37 C          63.1162   90.8517   11.9218 C.ar    1  UNL1        0.1557
     38 C          62.7555   89.8936   13.0182 C.ar    1  UNL1        0.0384
     39 C          63.6954   89.6815   14.1680 C.ar    1  UNL1        0.0032
     40 C          64.9956   90.4273   14.2213 C.ar    1  UNL1        0.0011
     41 C          65.3562   91.3854   13.1249 C.ar    1  UNL1        0.0145
     42 C          64.4164   91.5975   11.9752 C.ar    1  UNL1        0.0921
     43 CL         64.7770   92.5556   10.8787 Cl      1  UNL1       -0.0791
@<TRIPOS>UNITY_ATOM_ATTR
21 1
charge -1
@<TRIPOS>BOND
     1    17    18    1
     2    18    19    1
     3    18    20    1
     4    20    21   ar
     5    20    22   ar
     6    18     5    1
     7     5     6    1
     8     6     7    1
     9     7     8    1
    10     8     1    1
    11     1     2    2
    12     1     3   am
    13     3    23    1
    14    23    24    1
    15    24    25    1
    16    25    26    1
    17    26    29    1
    18    29    30    1
    19    30    31   ar
    20    31    32   ar
    21    32    33   ar
    22    33    34   ar
    23    34    36    1
    24    36    37    1
    25    37    38   ar
    26    38    39   ar
    27    39    40   ar
    28    40    41   ar
    29    41    42   ar
    30    42    43    1
    31    34    35   ar
    32    26    27    1
    33    27    28    1
    34     8    11    1
    35    11    12   ar
    36    12    13   ar
    37    13    14   ar
    38    14    15   ar
    39    15    16   ar
    40     8     9    1
    41     9    10    1
    42    10     5    1
    43    28    23    1
    44    16    11   ar
    45    35    30   ar
    46    42    37   ar
    47     3     4    1
@<TRIPOS>MOLECULE
*****
 43 47 0 0 0
SMALL
GASTEIGER

@<TRIPOS>ATOM
      1 C          60.1072   92.6941    1.6025 C.2     1  UNL1        0.2254
      2 O          60.4062   91.2624    1.2695 O.2     1  UNL1       -0.2748
      3 N          59.6806   93.0678    2.9911 N.am    1  UNL1       -0.3056
      4 H          59.4844   94.0075    3.2097 H       1  UNL1        0.1494
      5 N          58.5911   95.0903   -1.5763 N.3     1  UNL1       -0.2706
      6 C          60.0221   95.4906   -1.3722 C.3     1  UNL1        0.0731
      7 C          60.8440   94.8215   -0.3106 C.3     1  UNL1        0.0301
      8 C          60.2348   93.7521    0.5468 C.3     1  UNL1        0.0902
      9 C          58.8037   93.3518    0.3427 C.3     1  UNL1        0.0301
     10 C          57.9819   94.0209   -0.7189 C.3     1  UNL1        0.0731
     11 C          61.6216   93.7850    1.1176 C.ar    1  UNL1       -0.0145
     12 C          62.2445   95.0949    1.4996 C.ar    1  UNL1       -0.0038
     13 C          63.6313   95.1279    2.0704 C.ar    1  UNL1       -0.0003
     14 C          64.3951   93.8508    2.2590 C.ar    1  UNL1       -0.0000
     15 C          63.7723   92.5408    1.8769 C.ar    1  UNL1       -0.0003
     16 C          62.3855   92.5079    1.3062 C.ar    1  UNL1       -0.0038
     17 C          58.9987   95.9352   -3.4789 C.3     1  UNL1        0.0217
     18 C          57.7692   95.7593   -2.6378 C.3     1  UNL1        0.0775
     19 C          56.5397   95.5834   -1.7968 C.3     1  UNL1        0.0217
     20 C          56.9473   96.4284   -3.6993 C.2     1  UNL1        0.0632
     21 O          55.4849   96.6731   -3.4726 O.co2   1  UNL1       -0.5479
     22 O          57.5878   96.8527   -4.9876 O.co2   1  UNL1       -0.5479
     23 C          59.5530   92.0098    4.0468 C.3     1  UNL1        0.0743
     24 C          60.7676   91.2599    4.5077 C.3     1  UNL1        0.0369
     25 C          60.6400   90.2019    5.5634 C.3     1  UNL1        0.0741
     26 N          59.2978   89.8939    6.1580 N.3     1  UNL1       -0.2688
     27 C          58.0833   90.6438    5.6971 C.3     1  UNL1        0.0741
     28 C          58.2109   91.7018    4.6414 C.3     1  UNL1        0.0369
     29 C          59.1702   88.8359    7.2137 C.3     1  UNL1        0.0992
     30 C          60.0826   88.8505    8.4042 C.ar    1  UNL1       -0.0031
     31 C          60.8659   90.0866    8.7339 C.ar    1  UNL1       -0.0027
     32 C          61.7783   90.1010    9.9244 C.ar    1  UNL1        0.0029
     33 C          61.9073   88.8796   10.7854 C.ar    1  UNL1        0.0375
     34 C          61.1240   87.6435   10.4558 C.ar    1  UNL1        0.1451
     35 C          60.2116   87.6289    9.2652 C.ar    1  UNL1        0.0346
     36 O          61.2531   86.4221   11.3168 O.3     1  UNL1       -0.4527
     37 C          62.2639   85.3675   10.9759 C.ar    1  UNL1        0.1557
     38 C          62.6859   85.1660    9.5507 C.ar    1  UNL1        0.0384
     39 C          63.6968   84.1114    9.2098 C.ar    1  UNL1        0.0032
     40 C          64.2854   83.2584   10.2941 C.ar    1  UNL1        0.0011
     41 C          63.8633   83.4599   11.7193 C.ar    1  UNL1        0.0145
     42 C          62.8526   84.5144   12.0602 C.ar    1  UNL1        0.0921
     43 CL         62.4305   84.7159   13.4855 Cl      1  UNL1       -0.0791
@<TRIPOS>UNITY_ATOM_ATTR
21 1
charge -1
@<TRIPOS>BOND
     1    17    18    1
     2    18    19    1
     3    18    20    1
     4    20    21   ar
     5    20    22   ar
     6    18     5    1
     7     5     6    1
     8     6     7    1
     9     7     8    1
    10     8     1    1
    11     1     2    2
    12     1     3   am
    13     3    23    1
    14    23    24    1
    15    24    25    1
    16    25    26    1
    17    26    29    1
    18    29    30    1
    19    30    31   ar
    20    31    32   ar
    21    32    33   ar
    22    33    34   ar
    23    34    36    1
    24    36    37    1
    25    37    38   ar
    26    38    39   ar
    27    39    40   ar
    28    40    41   ar
    29    41    42   ar
    30    42    43    1
    31    34    35   ar
    32    26    27    1
    33    27    28    1
    34     8    11    1
    35    11    12   ar
    36    12    13   ar
    37    13    14   ar
    38    14    15   ar
    39    15    16   ar
    40     8     9    1
    41     9    10    1
    42    10     5    1
    43    28    23    1
    44    16    11   ar
    45    35    30   ar
    46    42    37   ar
    47     3     4    1
@<TRIPOS>MOLECULE
*****
 43 47 0 0 0
SMALL
GASTEIGER

@<TRIPOS>ATOM
      1 C          62.0895   87.2010   10.5718 C.2     1  UNL1        0.2254
      2 O          63.0422   88.0887    9.8274 O.2     1  UNL1       -0.2748
      3 N          60.6437   87.1528   10.1751 N.am    1  UNL1       -0.3056
      4 H          60.0183   86.5701   10.6637 H       1  UNL1        0.1494
      5 N          62.8516   83.4780   12.4962 N.3     1  UNL1       -0.2706
      6 C          63.3097   84.5557   13.4335 C.3     1  UNL1        0.0731
      7 C          63.1752   85.9974   13.0419 C.3     1  UNL1        0.0301
      8 C          62.5825   86.3614   11.7129 C.3     1  UNL1        0.0902
      9 C          62.1244   85.2837   10.7756 C.3     1  UNL1        0.0301
     10 C          62.2589   83.8420   11.1672 C.3     1  UNL1        0.0731
     11 C          62.8694   87.7308   12.2540 C.ar    1  UNL1       -0.0145
     12 C          62.1271   88.9193   11.7190 C.ar    1  UNL1       -0.0038
     13 C          62.4140   90.2886   12.2600 C.ar    1  UNL1       -0.0003
     14 C          63.4432   90.4693   13.3360 C.ar    1  UNL1       -0.0000
     15 C          64.1856   89.2808   13.8711 C.ar    1  UNL1       -0.0003
     16 C          63.8987   87.9114   13.3300 C.ar    1  UNL1       -0.0038
     17 C          63.1651   81.6615   11.4465 C.3     1  UNL1        0.0217
     18 C          62.9861   82.0363   12.8878 C.3     1  UNL1        0.0775
     19 C          62.8071   82.4112   14.3292 C.3     1  UNL1        0.0217
     20 C          63.1206   80.5946   13.2795 C.2     1  UNL1        0.0632
     21 O          63.9518   80.2150   14.4690 O.co2   1  UNL1       -0.5479
     22 O          62.4239   79.5325   12.4817 O.co2   1  UNL1       -0.5479
     23 C          60.1506   87.9923    9.0340 C.3     1  UNL1        0.0743
     24 C          59.5989   87.3357    7.8034 C.3     1  UNL1        0.0369
     25 C          59.1059   88.1753    6.6623 C.3     1  UNL1        0.0741
     26 N          59.1646   89.6714    6.7519 N.3     1  UNL1       -0.2688
     27 C          59.7163   90.3281    7.9825 C.3     1  UNL1        0.0741
     28 C          60.2093   89.4885    9.1236 C.3     1  UNL1        0.0369
     29 C          58.6715   90.5110    5.6108 C.3     1  UNL1        0.0992
     30 C          59.6519   91.1907    4.7015 C.ar    1  UNL1       -0.0031
     31 C          61.0939   90.7773    4.7096 C.ar    1  UNL1       -0.0027
     32 C          62.0741   91.4571    3.8003 C.ar    1  UNL1        0.0029
     33 C          61.6126   92.5503    2.8828 C.ar    1  UNL1        0.0375
     34 C          60.1707   92.9637    2.8746 C.ar    1  UNL1        0.1451
     35 C          59.1903   92.2840    3.7839 C.ar    1  UNL1        0.0346
     36 O          59.7092   94.0569    1.9571 O.3     1  UNL1       -0.4527
     37 C          59.6256   93.8109    0.4798 C.ar    1  UNL1        0.1557
     38 C          58.4116   93.1499   -0.1028 C.ar    1  UNL1        0.0384
     39 C          58.3280   92.9039   -1.5802 C.ar    1  UNL1        0.0032
     40 C          59.4582   93.3189   -2.4748 C.ar    1  UNL1        0.0011
     41 C          60.6721   93.9799   -1.8922 C.ar    1  UNL1        0.0145
     42 C          60.7557   94.2259   -0.4149 C.ar    1  UNL1        0.0921
     43 CL         61.9697   94.8869    0.1678 Cl      1  UNL1       -0.0791
@<TRIPOS>UNITY_ATOM_ATTR
21 1
charge -1
@<TRIPOS>BOND
     1    17    18    1
     2    18    19    1
     3    18    20    1
     4    20    21   ar
     5    20    22   ar
     6    18     5    1
     7     5     6    1
     8     6     7    1
     9     7     8    1
    10     8     1    1
    11     1     2    2
    12     1     3   am
    13     3    23    1
    14    23    24    1
    15    24    25    1
    16    25    26    1
    17    26    29    1
    18    29    30    1
    19    30    31   ar
    20    31    32   ar
    21    32    33   ar
    22    33    34   ar
    23    34    36    1
    24    36    37    1
    25    37    38   ar
    26    38    39   ar
    27    39    40   ar
    28    40    41   ar
    29    41    42   ar
    30    42    43    1
    31    34    35   ar
    32    26    27    1
    33    27    28    1
    34     8    11    1
    35    11    12   ar
    36    12    13   ar
    37    13    14   ar
    38    14    15   ar
    39    15    16   ar
    40     8     9    1
    41     9    10    1
    42    10     5    1
    43    28    23    1
    44    16    11   ar
    45    35    30   ar
    46    42    37   ar
    47     3     4    1
@<TRIPOS>MOLECULE
*****
 43 47 0 0 0
SMALL
GASTEIGER

@<TRIPOS>ATOM
      1 C          60.1297   93.8423    1.7722 C.2     1  UNL1        0.2254
      2 O          60.1171   94.7839    2.9397 O.2     1  UNL1       -0.2748
      3 N          59.9444   92.3704    1.9937 N.am    1  UNL1       -0.3056
      4 H          59.9528   91.7524    1.2274 H       1  UNL1        0.1494
      5 N          58.7861   94.8016   -2.1545 N.3     1  UNL1       -0.2706
      6 C          60.2338   95.1874   -2.0821 C.3     1  UNL1        0.0731
      7 C          61.0046   94.9730   -0.8133 C.3     1  UNL1        0.0301
      8 C          60.3277   94.3726    0.3831 C.3     1  UNL1        0.0902
      9 C          58.8801   93.9868    0.3107 C.3     1  UNL1        0.0301
     10 C          58.1092   94.2013   -0.9581 C.3     1  UNL1        0.0731
     11 C          61.7067   94.5743    0.9379 C.ar    1  UNL1       -0.0145
     12 C          62.6001   93.3929    1.1747 C.ar    1  UNL1       -0.0038
     13 C          63.9790   93.5946    1.7295 C.ar    1  UNL1       -0.0003
     14 C          64.4645   94.9777    2.0475 C.ar    1  UNL1       -0.0000
     15 C          63.5712   96.1592    1.8108 C.ar    1  UNL1       -0.0003
     16 C          62.1923   95.9575    1.2559 C.ar    1  UNL1       -0.0038
     17 C          58.4739   93.6799   -3.9278 C.3     1  UNL1        0.0217
     18 C          58.0153   95.0160   -3.4233 C.3     1  UNL1        0.0775
     19 C          57.5567   96.3522   -2.9188 C.3     1  UNL1        0.0217
     20 C          57.2445   95.2305   -4.6921 C.2     1  UNL1        0.0632
     21 O          55.8448   94.7060   -4.8171 O.co2   1  UNL1       -0.5479
     22 O          57.8733   95.9695   -5.8359 O.co2   1  UNL1       -0.5479
     23 C          59.7464   91.8401    3.3829 C.3     1  UNL1        0.0743
     24 C          58.3911   91.9008    4.0227 C.3     1  UNL1        0.0369
     25 C          58.1931   91.3705    5.4119 C.3     1  UNL1        0.0741
     26 N          59.3505   90.7795    6.1610 N.3     1  UNL1       -0.2688
     27 C          60.7058   90.7188    5.5212 C.3     1  UNL1        0.0741
     28 C          60.9038   91.2491    4.1320 C.3     1  UNL1        0.0369
     29 C          59.1525   90.2492    7.5502 C.3     1  UNL1        0.0992
     30 C          59.5867   88.8541    7.8893 C.ar    1  UNL1       -0.0031
     31 C          58.9520   87.6826    7.2001 C.ar    1  UNL1       -0.0027
     32 C          59.3862   86.2875    7.5393 C.ar    1  UNL1        0.0029
     33 C          60.4551   86.0637    8.5675 C.ar    1  UNL1        0.0375
     34 C          61.0898   87.2352    9.2567 C.ar    1  UNL1        0.1451
     35 C          60.6556   88.6304    8.9176 C.ar    1  UNL1        0.0346
     36 O          62.1587   87.0114   10.2850 O.3     1  UNL1       -0.4527
     37 C          62.5807   85.6157   10.6367 C.ar    1  UNL1        0.1557
     38 C          62.3293   85.0812   12.0155 C.ar    1  UNL1        0.0384
     39 C          62.7514   83.6853   12.3673 C.ar    1  UNL1        0.0032
     40 C          63.4248   82.8242   11.3403 C.ar    1  UNL1        0.0011
     41 C          63.6762   83.3587    9.9615 C.ar    1  UNL1        0.0145
     42 C          63.2542   84.7544    9.6097 C.ar    1  UNL1        0.0921
     43 CL         63.5057   85.2889    8.2309 Cl      1  UNL1       -0.0791
@<TRIPOS>UNITY_ATOM_ATTR
21 1
charge -1
@<TRIPOS>BOND
     1    17    18    1
     2    18    19    1
     3    18    20    1
     4    20    21   ar
     5    20    22   ar
     6    18     5    1
     7     5     6    1
     8     6     7    1
     9     7     8    1
    10     8     1    1
    11     1     2    2
    12     1     3   am
    13     3    23    1
    14    23    24    1
    15    24    25    1
    16    25    26    1
    17    26    29    1
    18    29    30    1
    19    30    31   ar
    20    31    32   ar
    21    32    33   ar
    22    33    34   ar
    23    34    36    1
    24    36    37    1
    25    37    38   ar
    26    38    39   ar
    27    39    40   ar
    28    40    41   ar
    29    41    42   ar
    30    42    43    1
    31    34    35   ar
    32    26    27    1
    33    27    28    1
    34     8    11    1
    35    11    12   ar
    36    12    13   ar
    37    13    14   ar
    38    14    15   ar
    39    15    16   ar
    40     8     9    1
    41     9    10    1
    42    10     5    1
    43    28    23    1
    44    16    11   ar
    45    35    30   ar
    46    42    37   ar
    47     3     4    1
@<TRIPOS>MOLECULE
*****
 43 47 0 0 0
SMALL
GASTEIGER

@<TRIPOS>ATOM
      1 C          60.1483   93.7842    1.8312 C.2     1  UNL1        0.2254
      2 O          60.1331   94.7049    3.0152 O.2     1  UNL1       -0.2748
      3 N          59.9354   92.3119    2.0233 N.am    1  UNL1       -0.3056
      4 H          59.9454   91.7075    1.2462 H       1  UNL1        0.1494
      5 N          58.8545   94.9480   -2.0568 N.3     1  UNL1       -0.2706
      6 C          60.3275   95.2220   -1.9867 C.3     1  UNL1        0.0731
      7 C          61.0885   94.9159   -0.7308 C.3     1  UNL1        0.0301
      8 C          60.3763   94.3357    0.4550 C.3     1  UNL1        0.0902
      9 C          58.9033   94.0617    0.3850 C.3     1  UNL1        0.0301
     10 C          58.1423   94.3678   -0.8709 C.3     1  UNL1        0.0731
     11 C          61.7703   94.4182    1.0030 C.ar    1  UNL1       -0.0145
     12 C          62.5456   93.1629    1.2729 C.ar    1  UNL1       -0.0038
     13 C          63.9394   93.2453    1.8209 C.ar    1  UNL1       -0.0003
     14 C          64.5580   94.5832    2.0989 C.ar    1  UNL1       -0.0000
     15 C          63.7827   95.8387    1.8290 C.ar    1  UNL1       -0.0003
     16 C          62.3888   95.7562    1.2811 C.ar    1  UNL1       -0.0038
     17 C          57.4944   96.4620   -2.6552 C.3     1  UNL1        0.0217
     18 C          58.0935   95.2541   -3.3126 C.3     1  UNL1        0.0775
     19 C          58.6926   94.0463   -3.9701 C.3     1  UNL1        0.0217
     20 C          57.3326   95.5603   -4.5685 C.2     1  UNL1        0.0632
     21 O          57.6995   96.7571   -5.3949 O.co2   1  UNL1       -0.5479
     22 O          56.2047   94.6696   -4.9980 O.co2   1  UNL1       -0.5479
     23 C          59.7074   91.7603    3.3995 C.3     1  UNL1        0.0743
     24 C          60.8517   91.1731    4.1713 C.3     1  UNL1        0.0369
     25 C          60.6237   90.6216    5.5474 C.3     1  UNL1        0.0741
     26 N          59.2513   90.6573    6.1518 N.3     1  UNL1       -0.2688
     27 C          58.1069   91.2445    5.3800 C.3     1  UNL1        0.0741
     28 C          58.3350   91.7960    4.0038 C.3     1  UNL1        0.0369
     29 C          59.0232   90.1057    7.5279 C.3     1  UNL1        0.0992
     30 C          59.6636   88.8110    7.9326 C.ar    1  UNL1       -0.0031
     31 C          59.3835   87.5600    7.1537 C.ar    1  UNL1       -0.0027
     32 C          60.0239   86.2654    7.5585 C.ar    1  UNL1        0.0029
     33 C          60.9442   86.2216    8.7420 C.ar    1  UNL1        0.0375
     34 C          61.2243   87.4726    9.5210 C.ar    1  UNL1        0.1451
     35 C          60.5840   88.7673    9.1163 C.ar    1  UNL1        0.0346
     36 O          62.1447   87.4288   10.7045 O.3     1  UNL1       -0.4527
     37 C          62.7396   88.6976   11.2394 C.ar    1  UNL1        0.1557
     38 C          62.6529   89.9627   10.4381 C.ar    1  UNL1        0.0384
     39 C          63.2479   91.2316   10.9730 C.ar    1  UNL1        0.0032
     40 C          63.9295   91.2354   12.3091 C.ar    1  UNL1        0.0011
     41 C          64.0162   89.9703   13.1105 C.ar    1  UNL1        0.0145
     42 C          63.4213   88.7015   12.5756 C.ar    1  UNL1        0.0921
     43 CL         63.5080   87.4364   13.3770 Cl      1  UNL1       -0.0791
@<TRIPOS>UNITY_ATOM_ATTR
21 1
charge -1
@<TRIPOS>BOND
     1    17    18    1
     2    18    19    1
     3    18    20    1
     4    20    21   ar
     5    20    22   ar
     6    18     5    1
     7     5     6    1
     8     6     7    1
     9     7     8    1
    10     8     1    1
    11     1     2    2
    12     1     3   am
    13     3    23    1
    14    23    24    1
    15    24    25    1
    16    25    26    1
    17    26    29    1
    18    29    30    1
    19    30    31   ar
    20    31    32   ar
    21    32    33   ar
    22    33    34   ar
    23    34    36    1
    24    36    37    1
    25    37    38   ar
    26    38    39   ar
    27    39    40   ar
    28    40    41   ar
    29    41    42   ar
    30    42    43    1
    31    34    35   ar
    32    26    27    1
    33    27    28    1
    34     8    11    1
    35    11    12   ar
    36    12    13   ar
    37    13    14   ar
    38    14    15   ar
    39    15    16   ar
    40     8     9    1
    41     9    10    1
    42    10     5    1
    43    28    23    1
    44    16    11   ar
    45    35    30   ar
    46    42    37   ar
    47     3     4    1
@<TRIPOS>MOLECULE
*****
 43 47 0 0 0
SMALL
GASTEIGER

@<TRIPOS>ATOM
      1 C          61.8772   87.1489   11.3489 C.2     1  UNL1        0.2254
      2 O          61.0452   88.2840   11.8679 O.2     1  UNL1       -0.2748
      3 N          61.8685   86.8206    9.8853 N.am    1  UNL1       -0.3056
      4 H          62.4146   86.0756    9.5447 H       1  UNL1        0.1494
      5 N          63.1833   83.4875   13.0904 N.3     1  UNL1       -0.2706
      6 C          63.9594   84.5871   13.7526 C.3     1  UNL1        0.0731
      7 C          63.7266   86.0144   13.3542 C.3     1  UNL1        0.0301
      8 C          62.7179   86.3420   12.2936 C.3     1  UNL1        0.0902
      9 C          61.9418   85.2424   11.6314 C.3     1  UNL1        0.0301
     10 C          62.1746   83.8152   12.0298 C.3     1  UNL1        0.0731
     11 C          63.2020   87.7219   12.6277 C.ar    1  UNL1       -0.0145
     12 C          63.0424   88.8339   11.6338 C.ar    1  UNL1       -0.0038
     13 C          63.5264   90.2138   11.9679 C.ar    1  UNL1       -0.0003
     14 C          64.1701   90.4816   13.2960 C.ar    1  UNL1       -0.0000
     15 C          64.3298   89.3696   14.2900 C.ar    1  UNL1       -0.0003
     16 C          63.8457   87.9897   13.9559 C.ar    1  UNL1       -0.0038
     17 C          64.5551   81.9746   12.5166 C.3     1  UNL1        0.0217
     18 C          63.4161   82.0603   13.4889 C.3     1  UNL1        0.0775
     19 C          62.2771   82.1459   14.4612 C.3     1  UNL1        0.0217
     20 C          63.6488   80.6330   13.8873 C.2     1  UNL1        0.0632
     21 O          62.6240   79.5870   13.5624 O.co2   1  UNL1       -0.5479
     22 O          64.9063   80.2517   14.6106 O.co2   1  UNL1       -0.5479
     23 C          61.0278   87.6275    8.9407 C.3     1  UNL1        0.0743
     24 C          60.2219   86.9393    7.8792 C.3     1  UNL1        0.0369
     25 C          59.3812   87.7462    6.9346 C.3     1  UNL1        0.0741
     26 N          59.3466   89.2412    7.0515 N.3     1  UNL1       -0.2688
     27 C          60.1525   89.9294    8.1130 C.3     1  UNL1        0.0741
     28 C          60.9932   89.1225    9.0577 C.3     1  UNL1        0.0369
     29 C          58.5059   90.0481    6.1069 C.3     1  UNL1        0.0992
     30 C          59.1466   91.0810    5.2281 C.ar    1  UNL1       -0.0031
     31 C          58.4071   92.3417    4.8904 C.ar    1  UNL1       -0.0027
     32 C          59.0480   93.3746    4.0116 C.ar    1  UNL1        0.0029
     33 C          60.4282   93.1470    3.4703 C.ar    1  UNL1        0.0375
     34 C          61.1677   91.8863    3.8080 C.ar    1  UNL1        0.1451
     35 C          60.5270   90.8534    4.6868 C.ar    1  UNL1        0.0346
     36 O          62.5480   91.6587    3.2667 O.3     1  UNL1       -0.4527
     37 C          63.1183   92.5992    2.2468 C.ar    1  UNL1        0.1557
     38 C          64.2615   93.4989    2.6127 C.ar    1  UNL1        0.0384
     39 C          64.8318   94.4394    1.5927 C.ar    1  UNL1        0.0032
     40 C          64.2590   94.4803    0.2071 C.ar    1  UNL1        0.0011
     41 C          63.1158   93.5806   -0.1588 C.ar    1  UNL1        0.0145
     42 C          62.5455   92.6402    0.8611 C.ar    1  UNL1        0.0921
     43 CL         61.4023   91.7405    0.4952 Cl      1  UNL1       -0.0791
@<TRIPOS>UNITY_ATOM_ATTR
21 1
charge -1
@<TRIPOS>BOND
     1    17    18    1
     2    18    19    1
     3    18    20    1
     4    20    21   ar
     5    20    22   ar
     6    18     5    1
     7     5     6    1
     8     6     7    1
     9     7     8    1
    10     8     1    1
    11     1     2    2
    12     1     3   am
    13     3    23    1
    14    23    24    1
    15    24    25    1
    16    25    26    1
    17    26    29    1
    18    29    30    1
    19    30    31   ar
    20    31    32   ar
    21    32    33   ar
    22    33    34   ar
    23    34    36    1
    24    36    37    1
    25    37    38   ar
    26    38    39   ar
    27    39    40   ar
    28    40    41   ar
    29    41    42   ar
    30    42    43    1
    31    34    35   ar
    32    26    27    1
    33    27    28    1
    34     8    11    1
    35    11    12   ar
    36    12    13   ar
    37    13    14   ar
    38    14    15   ar
    39    15    16   ar
    40     8     9    1
    41     9    10    1
    42    10     5    1
    43    28    23    1
    44    16    11   ar
    45    35    30   ar
    46    42    37   ar
    47     3     4    1
@<TRIPOS>MOLECULE
*****
 43 47 0 0 0
SMALL
GASTEIGER

@<TRIPOS>ATOM
      1 C          63.1608   89.3287   12.6407 C.2     1  UNL1        0.2254
      2 O          61.7463   89.4391   13.1276 O.2     1  UNL1       -0.2748
      3 N          63.4371   89.1064   11.1833 N.am    1  UNL1       -0.3056
      4 H          64.3655   89.0339   10.8637 H       1  UNL1        0.1494
      5 N          66.3683   91.4185   14.5087 N.3     1  UNL1       -0.2706
      6 C          66.3165   90.0538   15.1290 C.3     1  UNL1        0.0731
      7 C          65.2818   89.0647   14.6804 C.3     1  UNL1        0.0301
      8 C          64.2989   89.4404   13.6114 C.3     1  UNL1        0.0902
      9 C          64.3508   90.8051   12.9910 C.3     1  UNL1        0.0301
     10 C          65.3854   91.7941   13.4397 C.3     1  UNL1        0.0731
     11 C          63.8519   88.0369   13.8947 C.ar    1  UNL1       -0.0145
     12 C          63.7896   87.5405   15.3088 C.ar    1  UNL1       -0.0038
     13 C          63.3426   86.1370   15.5921 C.ar    1  UNL1       -0.0003
     14 C          62.9577   85.2299   14.4612 C.ar    1  UNL1       -0.0000
     15 C          63.0199   85.7261   13.0471 C.ar    1  UNL1       -0.0003
     16 C          63.4670   87.1297   12.7638 C.ar    1  UNL1       -0.0038
     17 C          68.2437   92.0703   13.7617 C.3     1  UNL1        0.0217
     18 C          67.4030   92.4075   14.9573 C.3     1  UNL1        0.0775
     19 C          66.5622   92.7447   16.1529 C.3     1  UNL1        0.0217
     20 C          68.4377   93.3965   15.4060 C.2     1  UNL1        0.0632
     21 O          69.8295   93.3297   14.8508 O.co2   1  UNL1       -0.5479
     22 O          68.0805   94.4523   16.4098 O.co2   1  UNL1       -0.5479
     23 C          62.2990   88.9947   10.2126 C.3     1  UNL1        0.0743
     24 C          61.4538   90.1955    9.9064 C.3     1  UNL1        0.0369
     25 C          60.3156   90.0837    8.9358 C.3     1  UNL1        0.0741
     26 N          60.0227   88.7712    8.2714 N.3     1  UNL1       -0.2688
     27 C          60.8679   87.5704    8.5776 C.3     1  UNL1        0.0741
     28 C          62.0061   87.6821    9.5482 C.3     1  UNL1        0.0369
     29 C          58.8845   88.6594    7.3007 C.3     1  UNL1        0.0992
     30 C          58.6236   89.7645    6.3205 C.ar    1  UNL1       -0.0031
     31 C          57.2148   90.1138    5.9416 C.ar    1  UNL1       -0.0027
     32 C          56.9540   91.2189    4.9614 C.ar    1  UNL1        0.0029
     33 C          58.1016   91.9746    4.3601 C.ar    1  UNL1        0.0375
     34 C          59.5104   91.6252    4.7390 C.ar    1  UNL1        0.1451
     35 C          59.7714   90.5202    5.7192 C.ar    1  UNL1        0.0346
     36 O          60.6581   92.3809    4.1377 O.3     1  UNL1       -0.4527
     37 C          60.7232   92.5902    2.6538 C.ar    1  UNL1        0.1557
     38 C          59.5017   93.0343    1.9048 C.ar    1  UNL1        0.0384
     39 C          59.5668   93.2436    0.4208 C.ar    1  UNL1        0.0032
     40 C          60.8531   93.0087   -0.3140 C.ar    1  UNL1        0.0011
     41 C          62.0746   92.5646    0.4350 C.ar    1  UNL1        0.0145
     42 C          62.0095   92.3553    1.9189 C.ar    1  UNL1        0.0921
     43 CL         63.2309   91.9112    2.6679 Cl      1  UNL1       -0.0791
@<TRIPOS>UNITY_ATOM_ATTR
21 1
charge -1
@<TRIPOS>BOND
     1    17    18    1
     2    18    19    1
     3    18    20    1
     4    20    21   ar
     5    20    22   ar
     6    18     5    1
     7     5     6    1
     8     6     7    1
     9     7     8    1
    10     8     1    1
    11     1     2    2
    12     1     3   am
    13     3    23    1
    14    23    24    1
    15    24    25    1
    16    25    26    1
    17    26    29    1
    18    29    30    1
    19    30    31   ar
    20    31    32   ar
    21    32    33   ar
    22    33    34   ar
    23    34    36    1
    24    36    37    1
    25    37    38   ar
    26    38    39   ar
    27    39    40   ar
    28    40    41   ar
    29    41    42   ar
    30    42    43    1
    31    34    35   ar
    32    26    27    1
    33    27    28    1
    34     8    11    1
    35    11    12   ar
    36    12    13   ar
    37    13    14   ar
    38    14    15   ar
    39    15    16   ar
    40     8     9    1
    41     9    10    1
    42    10     5    1
    43    28    23    1
    44    16    11   ar
    45    35    30   ar
    46    42    37   ar
    47     3     4    1
