@<TRIPOS>MOLECULE
*****
 41 45 0 0 0
SMALL
GASTEIGER

@<TRIPOS>ATOM
      1 C          61.6704   88.3888   10.3322 C.3     1  UNL1        0.0312
      2 C          62.3602   87.5169   11.3392 C.2     1  UNL1        0.0136
      3 C          62.2886   86.0239   11.2128 C.2     1  UNL1        0.0107
      4 C          62.9784   85.1521   12.2197 C.2     1  UNL1        0.0510
      5 C          63.7400   85.7731   13.3530 C.2     1  UNL1        0.0613
      6 C          63.8117   87.2661   13.4794 C.2     1  UNL1        0.2246
      7 N          64.4824   88.1574   14.4822 N.2     1  UNL1       -0.0378
      8 C          64.2070   89.5802   14.0951 C.2     1  UNL1        0.3605
      9 N          63.3661   89.5682   12.8530 N.2     1  UNL1       -0.0547
     10 C          63.1218   88.1379   12.4725 C.3     1  UNL1        0.2976
     11 C          64.6880   90.8007   14.8223 C.3     1  UNL1        0.2246
     12 C          65.7158   91.6930   14.1919 C.2     1  UNL1        0.0436
     13 C          66.1968   92.9136   14.9192 C.2     1  UNL1        0.0288
     14 C          65.6501   93.2418   16.2769 C.2     1  UNL1        0.0896
     15 N          64.6223   92.3495   16.9073 N.am    1  UNL1       -0.1770
     16 C          64.1413   91.1289   16.1800 C.2     1  UNL1        0.2627
     17 O          63.1136   90.2366   16.8105 O.2     1  UNL1       -0.2719
     18 N          66.2626   91.3649   12.8342 N.pl3   1  UNL1       -0.3329
     19 H          65.8275   90.6758   12.2817 H       1  UNL1        0.1466
     20 C          67.4721   92.0865   12.3182 C.3     1  UNL1        0.1211
     21 C          67.4889   92.6131   10.9138 C.3     1  UNL1        0.1522
     22 O          67.9227   91.7254    9.7851 O.3     1  UNL1       -0.3783
     23 H          68.1570   90.8509   10.1333 H       1  UNL1        0.2109
     24 C          67.0720   94.0273   10.6381 C.ar    1  UNL1        0.0067
     25 C          66.2447   94.7746   11.6417 C.ar    1  UNL1       -0.0018
     26 C          65.8278   96.1888   11.3660 C.ar    1  UNL1        0.0006
     27 C          66.2381   96.8559   10.0866 C.ar    1  UNL1        0.0114
     28 C          67.0654   96.1086    9.0831 C.ar    1  UNL1        0.0574
     29 CL         67.4757   96.7757    7.8037 Cl      1  UNL1       -0.0823
     30 C          67.4823   94.6944    9.3588 C.ar    1  UNL1        0.0095
     31 N          62.9068   83.6591   12.0933 N.pl3   1  UNL1       -0.3046
     32 C          63.3729   82.9897   10.8345 C.3     1  UNL1        0.1081
     33 C          63.3012   81.4968   10.7081 C.3     1  UNL1        0.0938
     34 N          62.7635   80.6732   11.8406 N.3     1  UNL1       -0.2697
     35 C          62.2973   81.3426   13.0994 C.3     1  UNL1        0.0938
     36 C          62.3690   82.8355   13.2258 C.3     1  UNL1        0.1081
     37 C          62.6918   79.1803   11.7143 C.3     1  UNL1        0.0748
     38 C          62.6998   78.5411   10.3572 C.3     1  UNL1        0.0490
     39 C          63.4117   77.2378   10.1462 C.3     1  UNL1        0.1386
     40 O          62.6848   75.9431   10.3590 O.3     1  UNL1       -0.3819
     41 H          62.4542   75.8521   11.2968 H       1  UNL1        0.2104
@<TRIPOS>BOND
     1     1     2    1
     2     2     3    2
     3     3     4    1
     4     4    31    1
     5    31    32    1
     6    32    33    1
     7    33    34    1
     8    34    37    1
     9    37    38    1
    10    38    39    1
    11    39    40    1
    12    34    35    1
    13    35    36    1
    14     4     5    2
    15     5     6    1
    16     6     7    2
    17     7     8    1
    18     8    11    1
    19    11    12    1
    20    12    18    1
    21    18    20    1
    22    20    21    1
    23    21    22    1
    24    21    24    1
    25    24    25   ar
    26    25    26   ar
    27    26    27   ar
    28    27    28   ar
    29    28    29    1
    30    28    30   ar
    31    12    13    2
    32    13    14    1
    33    14    15    2
    34    15    16    1
    35    16    17    2
    36     8     9    2
    37     9    10    1
    38    10     2    1
    39    36    31    1
    40    10     6    1
    41    16    11    1
    42    30    24   ar
    43    40    41    1
    44    18    19    1
    45    22    23    1
@<TRIPOS>MOLECULE
*****
 41 45 0 0 0
SMALL
GASTEIGER

@<TRIPOS>ATOM
      1 C          61.7322   90.0591   10.4208 C.3     1  UNL1        0.0312
      2 C          62.9444   90.6335   11.0922 C.2     1  UNL1        0.0136
      3 C          63.7272   91.7234   10.4220 C.2     1  UNL1        0.0107
      4 C          64.9393   92.2979   11.0933 C.2     1  UNL1        0.0510
      5 C          65.3686   91.7824   12.4351 C.2     1  UNL1        0.0613
      6 C          64.5857   90.6925   13.1053 C.2     1  UNL1        0.2246
      7 N          64.7662   89.9886   14.4175 N.2     1  UNL1       -0.0378
      8 C          63.6656   88.9791   14.5571 C.2     1  UNL1        0.3605
      9 N          62.8049   89.0591   13.3312 N.2     1  UNL1       -0.0547
     10 C          63.3736   90.1181   12.4339 C.3     1  UNL1        0.2976
     11 C          63.4614   88.0522   15.7187 C.3     1  UNL1        0.2246
     12 C          63.5736   86.5692   15.5236 C.2     1  UNL1        0.0436
     13 C          63.3694   85.6424   16.6852 C.2     1  UNL1        0.0288
     14 C          63.0531   86.1986   18.0419 C.2     1  UNL1        0.0896
     15 N          62.9409   87.6816   18.2370 N.am    1  UNL1       -0.1770
     16 C          63.1451   88.6084   17.0753 C.2     1  UNL1        0.2627
     17 O          63.0329   90.0914   17.2704 O.2     1  UNL1       -0.2719
     18 N          63.8899   86.0130   14.1669 N.pl3   1  UNL1       -0.3329
     19 H          64.4108   86.5476   13.5250 H       1  UNL1        0.1466
     20 C          63.4127   84.6423   13.7884 C.3     1  UNL1        0.1211
     21 C          63.7344   84.0836   12.4340 C.3     1  UNL1        0.1522
     22 O          64.6790   82.9255   12.3054 O.3     1  UNL1       -0.3783
     23 H          64.9887   82.6616   13.1859 H       1  UNL1        0.2109
     24 C          63.1115   84.6830   11.2082 C.ar    1  UNL1        0.0067
     25 C          63.6491   84.3415    9.8501 C.ar    1  UNL1       -0.0018
     26 C          63.0262   84.9410    8.6243 C.ar    1  UNL1        0.0006
     27 C          61.8655   85.8819    8.7565 C.ar    1  UNL1        0.0114
     28 C          61.3278   86.2234   10.1145 C.ar    1  UNL1        0.0574
     29 CL         60.1672   87.1643   10.2467 Cl      1  UNL1       -0.0823
     30 C          61.9508   85.6240   11.3403 C.ar    1  UNL1        0.0095
     31 N          65.7221   93.3878   10.4230 N.pl3   1  UNL1       -0.3046
     32 C          66.8043   93.0407    9.4440 C.3     1  UNL1        0.1081
     33 C          67.5871   94.1306    8.7737 C.3     1  UNL1        0.0938
     34 N          67.2879   95.5676    9.0825 N.3     1  UNL1       -0.2697
     35 C          66.2057   95.9147   10.0615 C.3     1  UNL1        0.0938
     36 C          65.4229   94.8249   10.7318 C.3     1  UNL1        0.1081
     37 C          68.0706   96.6575    8.4123 C.3     1  UNL1        0.0748
     38 C          67.9624   96.8555    6.9293 C.3     1  UNL1        0.0490
     39 C          66.6157   96.8555    6.2689 C.3     1  UNL1        0.1386
     40 O          65.4157   96.3483    7.0124 O.3     1  UNL1       -0.3819
     41 H          65.5156   95.3976    7.1774 H       1  UNL1        0.2104
@<TRIPOS>BOND
     1     1     2    1
     2     2     3    2
     3     3     4    1
     4     4    31    1
     5    31    32    1
     6    32    33    1
     7    33    34    1
     8    34    37    1
     9    37    38    1
    10    38    39    1
    11    39    40    1
    12    34    35    1
    13    35    36    1
    14     4     5    2
    15     5     6    1
    16     6     7    2
    17     7     8    1
    18     8    11    1
    19    11    12    1
    20    12    18    1
    21    18    20    1
    22    20    21    1
    23    21    22    1
    24    21    24    1
    25    24    25   ar
    26    25    26   ar
    27    26    27   ar
    28    27    28   ar
    29    28    29    1
    30    28    30   ar
    31    12    13    2
    32    13    14    1
    33    14    15    2
    34    15    16    1
    35    16    17    2
    36     8     9    2
    37     9    10    1
    38    10     2    1
    39    36    31    1
    40    10     6    1
    41    16    11    1
    42    30    24   ar
    43    40    41    1
    44    18    19    1
    45    22    23    1
@<TRIPOS>MOLECULE
*****
 41 45 0 0 0
SMALL
GASTEIGER

@<TRIPOS>ATOM
      1 C          63.0749   88.4664   17.7398 C.3     1  UNL1        0.0312
      2 C          63.3952   87.8747   16.3991 C.2     1  UNL1        0.0136
      3 C          63.1695   86.4127   16.1513 C.2     1  UNL1        0.0107
      4 C          63.4898   85.8210   14.8107 C.2     1  UNL1        0.0510
      5 C          64.0357   86.6915   13.7178 C.2     1  UNL1        0.0613
      6 C          64.2613   88.1535   13.9656 C.2     1  UNL1        0.2246
      7 N          64.7839   89.2514   13.0873 N.2     1  UNL1       -0.0378
      8 C          64.7866   90.5216   13.8851 C.2     1  UNL1        0.3605
      9 N          64.2657   90.2087   15.2565 N.2     1  UNL1       -0.0547
     10 C          63.9410   88.7452   15.3063 C.3     1  UNL1        0.2976
     11 C          65.2320   91.8683   13.3972 C.3     1  UNL1        0.2246
     12 C          65.0104   92.2585   11.9659 C.2     1  UNL1        0.0436
     13 C          65.4558   93.6052   11.4781 C.2     1  UNL1        0.0288
     14 C          66.1229   94.5617   12.4215 C.2     1  UNL1        0.0896
     15 N          66.3446   94.1716   13.8528 N.am    1  UNL1       -0.1770
     16 C          65.8991   92.8248   14.3406 C.2     1  UNL1        0.2627
     17 O          66.1208   92.4347   15.7719 O.2     1  UNL1       -0.2719
     18 N          64.3433   91.3020   11.0225 N.pl3   1  UNL1       -0.3329
     19 H          64.8831   90.6516   10.5177 H       1  UNL1        0.1466
     20 C          62.8539   91.3366   10.8481 C.3     1  UNL1        0.1211
     21 C          62.0178   90.1798   11.3094 C.3     1  UNL1        0.1522
     22 O          61.6411   90.0565   12.7561 O.3     1  UNL1       -0.3783
     23 H          62.0159   90.8008   13.2524 H       1  UNL1        0.2109
     24 C          61.5583   89.1465   10.3240 C.ar    1  UNL1        0.0067
     25 C          60.3112   89.3762    9.5228 C.ar    1  UNL1       -0.0018
     26 C          59.8517   88.3428    8.5375 C.ar    1  UNL1        0.0006
     27 C          60.6394   87.0796    8.3532 C.ar    1  UNL1        0.0114
     28 C          61.8865   86.8499    9.1543 C.ar    1  UNL1        0.0574
     29 CL         62.6742   85.5867    8.9700 Cl      1  UNL1       -0.0823
     30 C          62.3460   87.8833   10.1397 C.ar    1  UNL1        0.0095
     31 N          63.2641   84.3589   14.5629 N.pl3   1  UNL1       -0.3046
     32 C          64.3875   83.5012   14.0604 C.3     1  UNL1        0.1081
     33 C          64.1619   82.0392   13.8126 C.3     1  UNL1        0.0938
     34 N          62.8129   81.4347   14.0673 N.3     1  UNL1       -0.2697
     35 C          61.6895   82.2924   14.5698 C.3     1  UNL1        0.0938
     36 C          61.9151   83.7544   14.8176 C.3     1  UNL1        0.1081
     37 C          62.5872   79.9727   13.8195 C.3     1  UNL1        0.0748
     38 C          62.4980   79.4551   12.4144 C.3     1  UNL1        0.0490
     39 C          62.8847   80.3369   11.2643 C.3     1  UNL1        0.1386
     40 O          62.9231   79.7799    9.8720 O.3     1  UNL1       -0.3819
     41 H          63.6257   79.1140    9.8095 H       1  UNL1        0.2104
@<TRIPOS>BOND
     1     1     2    1
     2     2     3    2
     3     3     4    1
     4     4    31    1
     5    31    32    1
     6    32    33    1
     7    33    34    1
     8    34    37    1
     9    37    38    1
    10    38    39    1
    11    39    40    1
    12    34    35    1
    13    35    36    1
    14     4     5    2
    15     5     6    1
    16     6     7    2
    17     7     8    1
    18     8    11    1
    19    11    12    1
    20    12    18    1
    21    18    20    1
    22    20    21    1
    23    21    22    1
    24    21    24    1
    25    24    25   ar
    26    25    26   ar
    27    26    27   ar
    28    27    28   ar
    29    28    29    1
    30    28    30   ar
    31    12    13    2
    32    13    14    1
    33    14    15    2
    34    15    16    1
    35    16    17    2
    36     8     9    2
    37     9    10    1
    38    10     2    1
    39    36    31    1
    40    10     6    1
    41    16    11    1
    42    30    24   ar
    43    40    41    1
    44    18    19    1
    45    22    23    1
@<TRIPOS>MOLECULE
*****
 41 45 0 0 0
SMALL
GASTEIGER

@<TRIPOS>ATOM
      1 C          62.1079   88.7507   10.3885 C.3     1  UNL1        0.0312
      2 C          62.6714   87.9710   11.5394 C.2     1  UNL1        0.0136
      3 C          62.3911   86.5023   11.6591 C.2     1  UNL1        0.0107
      4 C          62.9545   85.7226   12.8099 C.2     1  UNL1        0.0510
      5 C          63.7984   86.4115   13.8412 C.2     1  UNL1        0.0613
      6 C          64.0788   87.8802   13.7214 C.2     1  UNL1        0.2246
      7 N          64.8702   88.8240   14.5775 N.2     1  UNL1       -0.0378
      8 C          64.7958   90.1870   13.9558 C.2     1  UNL1        0.3605
      9 N          63.9584   90.0856   12.7154 N.2     1  UNL1       -0.0547
     10 C          63.5153   88.6599   12.5705 C.3     1  UNL1        0.2976
     11 C          65.4448   91.4327   14.4820 C.3     1  UNL1        0.2246
     12 C          66.4648   92.1548   13.6524 C.2     1  UNL1        0.0436
     13 C          67.1138   93.4006   14.1787 C.2     1  UNL1        0.0288
     14 C          66.7429   93.9242   15.5345 C.2     1  UNL1        0.0896
     15 N          65.7229   93.2021   16.3640 N.am    1  UNL1       -0.1770
     16 C          65.0739   91.9564   15.8378 C.2     1  UNL1        0.2627
     17 O          64.0540   91.2343   16.6673 O.2     1  UNL1       -0.2719
     18 N          66.8358   91.6313   12.2966 N.pl3   1  UNL1       -0.3329
     19 H          66.2836   90.9374   11.8689 H       1  UNL1        0.1466
     20 C          68.0480   92.1647   11.5924 C.3     1  UNL1        0.1211
     21 C          67.9639   92.5569   10.1471 C.3     1  UNL1        0.1522
     22 O          68.3915   91.5912    9.0819 O.3     1  UNL1       -0.3783
     23 H          68.6934   90.7671    9.4948 H       1  UNL1        0.2109
     24 C          67.4522   93.9147    9.7669 C.ar    1  UNL1        0.0067
     25 C          67.7722   94.4861    8.4175 C.ar    1  UNL1       -0.0018
     26 C          67.2604   95.8438    8.0373 C.ar    1  UNL1        0.0006
     27 C          66.4286   96.6303    9.0066 C.ar    1  UNL1        0.0114
     28 C          66.1086   96.0589   10.3561 C.ar    1  UNL1        0.0574
     29 CL         65.2768   96.8454   11.3254 Cl      1  UNL1       -0.0823
     30 C          66.6204   94.7011   10.7362 C.ar    1  UNL1        0.0095
     31 N          62.6742   84.2538   12.9297 N.pl3   1  UNL1       -0.3046
     32 C          62.1948   83.6855   14.2325 C.3     1  UNL1        0.1081
     33 C          61.9144   82.2169   14.3522 C.3     1  UNL1        0.0938
     34 N          62.1135   81.3164   13.1691 N.3     1  UNL1       -0.2697
     35 C          62.5929   81.8847   11.8664 C.3     1  UNL1        0.0938
     36 C          62.8732   83.3534   11.7466 C.3     1  UNL1        0.1081
     37 C          61.8331   79.8478   13.2888 C.3     1  UNL1        0.0748
     38 C          60.7625   79.3620   14.2204 C.3     1  UNL1        0.0490
     39 C          59.4024   79.9941   14.1946 C.3     1  UNL1        0.1386
     40 O          58.3573   79.5652   15.1814 O.3     1  UNL1       -0.3819
     41 H          58.1108   78.6427   15.0109 H       1  UNL1        0.2104
@<TRIPOS>BOND
     1     1     2    1
     2     2     3    2
     3     3     4    1
     4     4    31    1
     5    31    32    1
     6    32    33    1
     7    33    34    1
     8    34    37    1
     9    37    38    1
    10    38    39    1
    11    39    40    1
    12    34    35    1
    13    35    36    1
    14     4     5    2
    15     5     6    1
    16     6     7    2
    17     7     8    1
    18     8    11    1
    19    11    12    1
    20    12    18    1
    21    18    20    1
    22    20    21    1
    23    21    22    1
    24    21    24    1
    25    24    25   ar
    26    25    26   ar
    27    26    27   ar
    28    27    28   ar
    29    28    29    1
    30    28    30   ar
    31    12    13    2
    32    13    14    1
    33    14    15    2
    34    15    16    1
    35    16    17    2
    36     8     9    2
    37     9    10    1
    38    10     2    1
    39    36    31    1
    40    10     6    1
    41    16    11    1
    42    30    24   ar
    43    40    41    1
    44    18    19    1
    45    22    23    1
@<TRIPOS>MOLECULE
*****
 41 45 0 0 0
SMALL
GASTEIGER

@<TRIPOS>ATOM
      1 C          59.4217   88.9527   12.2413 C.3     1  UNL1        0.0312
      2 C          59.9923   88.5698   10.9079 C.2     1  UNL1        0.0136
      3 C          59.6263   89.3535    9.6825 C.2     1  UNL1        0.0107
      4 C          60.1968   88.9707    8.3492 C.2     1  UNL1        0.0510
      5 C          61.1334   87.8039    8.2412 C.2     1  UNL1        0.0613
      6 C          61.4993   87.0201    9.4666 C.2     1  UNL1        0.2246
      7 N          62.3908   85.8307    9.6682 N.2     1  UNL1       -0.0378
      8 C          62.3712   85.4786   11.1261 C.2     1  UNL1        0.3605
      9 N          61.4677   86.4503   11.8256 N.2     1  UNL1       -0.0547
     10 C          60.9288   87.4030   10.8000 C.3     1  UNL1        0.2976
     11 C          63.1232   84.3524   11.7713 C.3     1  UNL1        0.2246
     12 C          63.5419   84.4561   13.2080 C.2     1  UNL1        0.0436
     13 C          64.2938   83.3298   13.8531 C.2     1  UNL1        0.0288
     14 C          64.6272   82.1000   13.0617 C.2     1  UNL1        0.0896
     15 N          64.2085   81.9963   11.6251 N.am    1  UNL1       -0.1770
     16 C          63.4565   83.1226   10.9799 C.2     1  UNL1        0.2627
     17 O          63.0379   83.0189    9.5433 O.2     1  UNL1       -0.2719
     18 N          63.2086   85.6858   13.9995 N.pl3   1  UNL1       -0.3329
     19 H          62.2791   85.8567   14.2755 H       1  UNL1        0.1466
     20 C          64.2913   86.6554   14.3704 C.3     1  UNL1        0.1211
     21 C          63.9338   88.0091   14.9086 C.3     1  UNL1        0.1522
     22 O          63.3853   88.1428   16.2983 O.3     1  UNL1       -0.3783
     23 H          63.3257   87.2656   16.7082 H       1  UNL1        0.2109
     24 C          64.1247   89.2291   14.0571 C.ar    1  UNL1        0.0067
     25 C          65.0566   90.3166   14.5029 C.ar    1  UNL1       -0.0018
     26 C          65.2475   91.5366   13.6513 C.ar    1  UNL1        0.0006
     27 C          64.5065   91.6691   12.3539 C.ar    1  UNL1        0.0114
     28 C          63.5745   90.5816   11.9081 C.ar    1  UNL1        0.0574
     29 CL         62.8335   90.7142   10.6107 Cl      1  UNL1       -0.0823
     30 C          63.3836   89.3616   12.7597 C.ar    1  UNL1        0.0095
     31 N          59.8309   89.7545    7.1237 N.pl3   1  UNL1       -0.3046
     32 C          58.3885   89.9461    6.7589 C.3     1  UNL1        0.1081
     33 C          58.0226   90.7299    5.5335 C.3     1  UNL1        0.0938
     34 N          59.0989   91.3221    4.6728 N.3     1  UNL1       -0.2697
     35 C          60.5412   91.1305    5.0375 C.3     1  UNL1        0.0938
     36 C          60.9072   90.3467    6.2630 C.3     1  UNL1        0.1081
     37 C          58.7330   92.1059    3.4474 C.3     1  UNL1        0.0748
     38 C          59.7952   92.8334    2.6775 C.3     1  UNL1        0.0490
     39 C          59.5832   93.1555    1.2279 C.3     1  UNL1        0.1386
     40 O          59.3055   92.0545    0.2478 O.3     1  UNL1       -0.3819
     41 H          60.0854   91.4825    0.1745 H       1  UNL1        0.2104
@<TRIPOS>BOND
     1     1     2    1
     2     2     3    2
     3     3     4    1
     4     4    31    1
     5    31    32    1
     6    32    33    1
     7    33    34    1
     8    34    37    1
     9    37    38    1
    10    38    39    1
    11    39    40    1
    12    34    35    1
    13    35    36    1
    14     4     5    2
    15     5     6    1
    16     6     7    2
    17     7     8    1
    18     8    11    1
    19    11    12    1
    20    12    18    1
    21    18    20    1
    22    20    21    1
    23    21    22    1
    24    21    24    1
    25    24    25   ar
    26    25    26   ar
    27    26    27   ar
    28    27    28   ar
    29    28    29    1
    30    28    30   ar
    31    12    13    2
    32    13    14    1
    33    14    15    2
    34    15    16    1
    35    16    17    2
    36     8     9    2
    37     9    10    1
    38    10     2    1
    39    36    31    1
    40    10     6    1
    41    16    11    1
    42    30    24   ar
    43    40    41    1
    44    18    19    1
    45    22    23    1
@<TRIPOS>MOLECULE
*****
 41 45 0 0 0
SMALL
GASTEIGER

@<TRIPOS>ATOM
      1 C          60.3466   88.1813    9.3390 C.3     1  UNL1        0.0312
      2 C          61.5173   88.3891   10.2535 C.2     1  UNL1        0.0136
      3 C          62.1993   89.7239   10.3073 C.2     1  UNL1        0.0107
      4 C          63.3699   89.9317   11.2218 C.2     1  UNL1        0.0510
      5 C          63.8586   88.8046   12.0826 C.2     1  UNL1        0.0613
      6 C          63.1766   87.4697   12.0288 C.2     1  UNL1        0.2246
      7 N          63.4322   86.1821   12.7545 N.2     1  UNL1       -0.0378
      8 C          62.4194   85.1785   12.2884 C.2     1  UNL1        0.3605
      9 N          61.5379   85.8459   11.2747 N.2     1  UNL1       -0.0547
     10 C          62.0059   87.2620   11.1142 C.3     1  UNL1        0.2976
     11 C          62.3077   83.7571   12.7543 C.3     1  UNL1        0.2246
     12 C          61.9784   83.4612   14.1875 C.2     1  UNL1        0.0436
     13 C          61.8667   82.0397   14.6533 C.2     1  UNL1        0.0288
     14 C          62.0844   80.9141   13.6860 C.2     1  UNL1        0.0896
     15 N          62.4137   81.2100   12.2528 N.am    1  UNL1       -0.1770
     16 C          62.5254   82.6315   11.7870 C.2     1  UNL1        0.2627
     17 O          62.8547   82.9274   10.3538 O.2     1  UNL1       -0.2719
     18 N          61.7607   84.5867   15.1548 N.pl3   1  UNL1       -0.3329
     19 H          60.9592   85.1533   15.0785 H       1  UNL1        0.1466
     20 C          62.7642   84.8490   16.2384 C.3     1  UNL1        0.1211
     21 C          62.7438   86.1528   16.9798 C.3     1  UNL1        0.1522
     22 O          62.0782   86.2426   18.3210 O.3     1  UNL1       -0.3783
     23 H          61.7147   85.3757   18.5603 H       1  UNL1        0.2109
     24 C          63.3892   87.3668   16.3800 C.ar    1  UNL1        0.0067
     25 C          64.4506   87.2113   15.3316 C.ar    1  UNL1       -0.0018
     26 C          65.0959   88.4253   14.7318 C.ar    1  UNL1        0.0006
     27 C          64.6798   89.7948   15.1804 C.ar    1  UNL1        0.0114
     28 C          63.6184   89.9503   16.2287 C.ar    1  UNL1        0.0574
     29 CL         63.2023   91.3198   16.6773 Cl      1  UNL1       -0.0823
     30 C          62.9730   88.7363   16.8285 C.ar    1  UNL1        0.0095
     31 N          64.0520   91.2667   11.2756 N.pl3   1  UNL1       -0.3046
     32 C          64.7668   91.6939   12.5232 C.3     1  UNL1        0.1081
     33 C          65.4488   93.0288   12.5770 C.3     1  UNL1        0.0938
     34 N          65.4161   93.9364   11.3832 N.3     1  UNL1       -0.2697
     35 C          64.7013   93.5091   10.1356 C.3     1  UNL1        0.0938
     36 C          64.0193   92.1743   10.0818 C.3     1  UNL1        0.1081
     37 C          66.0981   95.2713   11.4370 C.3     1  UNL1        0.0748
     38 C          66.6177   95.8993   10.1777 C.3     1  UNL1        0.0490
     39 C          67.5830   95.1493    9.3085 C.3     1  UNL1        0.1386
     40 O          68.2726   93.9259    9.8356 O.3     1  UNL1       -0.3819
     41 H          68.8673   94.1766   10.5598 H       1  UNL1        0.2104
@<TRIPOS>BOND
     1     1     2    1
     2     2     3    2
     3     3     4    1
     4     4    31    1
     5    31    32    1
     6    32    33    1
     7    33    34    1
     8    34    37    1
     9    37    38    1
    10    38    39    1
    11    39    40    1
    12    34    35    1
    13    35    36    1
    14     4     5    2
    15     5     6    1
    16     6     7    2
    17     7     8    1
    18     8    11    1
    19    11    12    1
    20    12    18    1
    21    18    20    1
    22    20    21    1
    23    21    22    1
    24    21    24    1
    25    24    25   ar
    26    25    26   ar
    27    26    27   ar
    28    27    28   ar
    29    28    29    1
    30    28    30   ar
    31    12    13    2
    32    13    14    1
    33    14    15    2
    34    15    16    1
    35    16    17    2
    36     8     9    2
    37     9    10    1
    38    10     2    1
    39    36    31    1
    40    10     6    1
    41    16    11    1
    42    30    24   ar
    43    40    41    1
    44    18    19    1
    45    22    23    1
@<TRIPOS>MOLECULE
*****
 41 45 0 0 0
SMALL
GASTEIGER

@<TRIPOS>ATOM
      1 C          58.6787   86.7112    8.5342 C.3     1  UNL1        0.0312
      2 C          59.5208   87.9279    8.2881 C.2     1  UNL1        0.0136
      3 C          59.2917   88.7633    7.0636 C.2     1  UNL1        0.0107
      4 C          60.1338   89.9799    6.8174 C.2     1  UNL1        0.0510
      5 C          61.2050   90.3612    7.7958 C.2     1  UNL1        0.0613
      6 C          61.4341   89.5257    9.0204 C.2     1  UNL1        0.2246
      7 N          62.4083   89.6523   10.1539 N.2     1  UNL1       -0.0378
      8 C          62.1682   88.5138   11.1006 C.2     1  UNL1        0.3605
      9 N          61.0457   87.6837   10.5522 N.2     1  UNL1       -0.0547
     10 C          60.5919   88.3091    9.2665 C.3     1  UNL1        0.2976
     11 C          62.9189   88.2516   12.3725 C.3     1  UNL1        0.2246
     12 C          63.4380   89.3990   13.1872 C.2     1  UNL1        0.0436
     13 C          64.1887   89.1366   14.4591 C.2     1  UNL1        0.0288
     14 C          64.4203   87.7269   14.9163 C.2     1  UNL1        0.0896
     15 N          63.9011   86.5794   14.1015 N.am    1  UNL1       -0.1770
     16 C          63.1504   86.8418   12.8296 C.2     1  UNL1        0.2627
     17 O          62.6313   85.6944   12.0149 O.2     1  UNL1       -0.2719
     18 N          63.2066   90.8088   12.7302 N.pl3   1  UNL1       -0.3329
     19 H          62.4344   91.3160   13.0704 H       1  UNL1        0.1466
     20 C          64.1514   91.4457   11.7548 C.3     1  UNL1        0.1211
     21 C          65.2211   92.3760   12.2451 C.3     1  UNL1        0.1522
     22 O          65.4050   92.5980   13.7172 O.3     1  UNL1       -0.3783
     23 H          64.7564   92.0690   14.2074 H       1  UNL1        0.2109
     24 C          66.1068   93.0844   11.2634 C.ar    1  UNL1        0.0067
     25 C          66.0163   94.5738   11.1104 C.ar    1  UNL1       -0.0018
     26 C          66.9020   95.2821   10.1287 C.ar    1  UNL1        0.0006
     27 C          67.8783   94.5010    9.2999 C.ar    1  UNL1        0.0114
     28 C          67.9688   93.0116    9.4530 C.ar    1  UNL1        0.0574
     29 CL         68.9451   92.2306    8.6243 Cl      1  UNL1       -0.0823
     30 C          67.0831   92.3033   10.4347 C.ar    1  UNL1        0.0095
     31 N          59.9047   90.8155    5.5928 N.pl3   1  UNL1       -0.3046
     32 C          58.5101   91.2035    5.1998 C.3     1  UNL1        0.1081
     33 C          58.2810   92.0390    3.9752 C.3     1  UNL1        0.0938
     34 N          59.4465   92.4864    3.1437 N.3     1  UNL1       -0.2697
     35 C          60.8412   92.0983    3.5368 C.3     1  UNL1        0.0938
     36 C          61.0702   91.2628    4.7613 C.3     1  UNL1        0.1081
     37 C          59.2176   93.3218    1.9192 C.3     1  UNL1        0.0748
     38 C          60.0786   93.1269    0.7064 C.3     1  UNL1        0.0490
     39 C          59.7488   92.0479   -0.2820 C.3     1  UNL1        0.1386
     40 O          58.3404   91.8842   -0.7716 O.3     1  UNL1       -0.3819
     41 H          57.7721   91.6090   -0.0353 H       1  UNL1        0.2104
@<TRIPOS>BOND
     1     1     2    1
     2     2     3    2
     3     3     4    1
     4     4    31    1
     5    31    32    1
     6    32    33    1
     7    33    34    1
     8    34    37    1
     9    37    38    1
    10    38    39    1
    11    39    40    1
    12    34    35    1
    13    35    36    1
    14     4     5    2
    15     5     6    1
    16     6     7    2
    17     7     8    1
    18     8    11    1
    19    11    12    1
    20    12    18    1
    21    18    20    1
    22    20    21    1
    23    21    22    1
    24    21    24    1
    25    24    25   ar
    26    25    26   ar
    27    26    27   ar
    28    27    28   ar
    29    28    29    1
    30    28    30   ar
    31    12    13    2
    32    13    14    1
    33    14    15    2
    34    15    16    1
    35    16    17    2
    36     8     9    2
    37     9    10    1
    38    10     2    1
    39    36    31    1
    40    10     6    1
    41    16    11    1
    42    30    24   ar
    43    40    41    1
    44    18    19    1
    45    22    23    1
@<TRIPOS>MOLECULE
*****
 41 45 0 0 0
SMALL
GASTEIGER

@<TRIPOS>ATOM
      1 C          63.6154   84.5920   13.9675 C.3     1  UNL1        0.0312
      2 C          63.3107   85.5982   12.8976 C.2     1  UNL1        0.0136
      3 C          62.8628   85.1389   11.5417 C.2     1  UNL1        0.0107
      4 C          62.5581   86.1450   10.4719 C.2     1  UNL1        0.0510
      5 C          62.7012   87.6106   10.7578 C.2     1  UNL1        0.0613
      6 C          63.1490   88.0699   12.1137 C.2     1  UNL1        0.2246
      7 N          63.3793   89.4378   12.6846 N.2     1  UNL1       -0.0378
      8 C          63.8264   89.2769   14.1073 C.2     1  UNL1        0.3605
      9 N          63.8724   87.8097   14.4157 N.2     1  UNL1       -0.0547
     10 C          63.4538   87.0637   13.1836 C.3     1  UNL1        0.2976
     11 C          64.1676   90.3883   15.0553 C.3     1  UNL1        0.2246
     12 C          65.3375   91.2832   14.7718 C.2     1  UNL1        0.0436
     13 C          65.6786   92.3945   15.7198 C.2     1  UNL1        0.0288
     14 C          64.8499   92.6109   16.9512 C.2     1  UNL1        0.0896
     15 N          63.6800   91.7159   17.2347 N.am    1  UNL1       -0.1770
     16 C          63.3389   90.6046   16.2867 C.2     1  UNL1        0.2627
     17 O          62.1690   89.7096   16.5702 O.2     1  UNL1       -0.2719
     18 N          66.1663   91.0669   13.5404 N.pl3   1  UNL1       -0.3329
     19 H          66.0781   90.2307   13.0284 H       1  UNL1        0.1466
     20 C          67.1293   92.1247   13.0892 C.3     1  UNL1        0.1211
     21 C          66.6408   93.2851   12.2739 C.3     1  UNL1        0.1522
     22 O          65.6502   94.2481   12.8581 O.3     1  UNL1       -0.3783
     23 H          65.4319   93.9777   13.7637 H       1  UNL1        0.2109
     24 C          67.1430   93.4826   10.8743 C.ar    1  UNL1        0.0067
     25 C          67.9230   92.3952   10.1968 C.ar    1  UNL1       -0.0018
     26 C          68.4251   92.5926    8.7972 C.ar    1  UNL1        0.0006
     27 C          68.1473   93.8777    8.0751 C.ar    1  UNL1        0.0114
     28 C          67.3673   94.9651    8.7525 C.ar    1  UNL1        0.0574
     29 CL         67.0895   96.2502    8.0303 Cl      1  UNL1       -0.0823
     30 C          66.8652   94.7676   10.1521 C.ar    1  UNL1        0.0095
     31 N          62.1102   85.6857    9.1159 N.pl3   1  UNL1       -0.3046
     32 C          60.7121   85.9689    8.6521 C.3     1  UNL1        0.1081
     33 C          60.2642   85.5096    7.2962 C.3     1  UNL1        0.0938
     34 N          61.2145   84.7670    6.4042 N.3     1  UNL1       -0.2697
     35 C          62.6125   84.4838    6.8680 C.3     1  UNL1        0.0938
     36 C          63.0604   84.9431    8.2239 C.3     1  UNL1        0.1081
     37 C          60.7667   84.3077    5.0483 C.3     1  UNL1        0.0748
     38 C          61.7551   84.2140    3.9239 C.3     1  UNL1        0.0490
     39 C          61.2736   84.1626    2.5042 C.3     1  UNL1        0.1386
     40 O          61.8126   85.1314    1.4938 O.3     1  UNL1       -0.3819
     41 H          61.5338   86.0307    1.7273 H       1  UNL1        0.2104
@<TRIPOS>BOND
     1     1     2    1
     2     2     3    2
     3     3     4    1
     4     4    31    1
     5    31    32    1
     6    32    33    1
     7    33    34    1
     8    34    37    1
     9    37    38    1
    10    38    39    1
    11    39    40    1
    12    34    35    1
    13    35    36    1
    14     4     5    2
    15     5     6    1
    16     6     7    2
    17     7     8    1
    18     8    11    1
    19    11    12    1
    20    12    18    1
    21    18    20    1
    22    20    21    1
    23    21    22    1
    24    21    24    1
    25    24    25   ar
    26    25    26   ar
    27    26    27   ar
    28    27    28   ar
    29    28    29    1
    30    28    30   ar
    31    12    13    2
    32    13    14    1
    33    14    15    2
    34    15    16    1
    35    16    17    2
    36     8     9    2
    37     9    10    1
    38    10     2    1
    39    36    31    1
    40    10     6    1
    41    16    11    1
    42    30    24   ar
    43    40    41    1
    44    18    19    1
    45    22    23    1
@<TRIPOS>MOLECULE
*****
 41 45 0 0 0
SMALL
GASTEIGER

@<TRIPOS>ATOM
      1 C          58.7191   89.4842   12.0645 C.3     1  UNL1        0.0312
      2 C          60.0073   88.9202   11.5425 C.2     1  UNL1        0.0136
      3 C          59.9957   87.9825   10.3718 C.2     1  UNL1        0.0107
      4 C          61.2838   87.4185    9.8498 C.2     1  UNL1        0.0510
      5 C          62.5837   87.7921   10.4985 C.2     1  UNL1        0.0613
      6 C          62.5953   88.7298   11.6692 C.2     1  UNL1        0.2246
      7 N          63.7135   89.2756   12.5069 N.2     1  UNL1       -0.0378
      8 C          63.1164   90.1769   13.5466 C.2     1  UNL1        0.3605
      9 N          61.6291   90.1882   13.3515 N.2     1  UNL1       -0.0547
     10 C          61.3071   89.2939   12.1912 C.3     1  UNL1        0.2976
     11 C          63.8735   90.9341   14.5971 C.3     1  UNL1        0.2246
     12 C          63.6686   90.6123   16.0478 C.2     1  UNL1        0.0436
     13 C          64.4258   91.3695   17.0982 C.2     1  UNL1        0.0288
     14 C          65.3879   92.4485   16.6980 C.2     1  UNL1        0.0896
     15 N          65.5929   92.7702   15.2473 N.am    1  UNL1       -0.1770
     16 C          64.8356   92.0130   14.1969 C.2     1  UNL1        0.2627
     17 O          65.0406   92.3348   12.7462 O.2     1  UNL1       -0.2719
     18 N          62.7065   89.5334   16.4480 N.pl3   1  UNL1       -0.3329
     19 H          61.7465   89.6330   16.2537 H       1  UNL1        0.1466
     20 C          63.2069   88.3027   17.1444 C.3     1  UNL1        0.1211
     21 C          62.6210   86.9624   16.8123 C.3     1  UNL1        0.1522
     22 O          61.2772   86.5759   17.3555 O.3     1  UNL1       -0.3783
     23 H          60.9271   87.3001   17.8975 H       1  UNL1        0.2109
     24 C          63.3788   86.0087   15.9371 C.ar    1  UNL1        0.0067
     25 C          64.6930   86.4193   15.3421 C.ar    1  UNL1       -0.0018
     26 C          65.4508   85.4655   14.4668 C.ar    1  UNL1        0.0006
     27 C          64.8944   84.1010   14.1866 C.ar    1  UNL1        0.0114
     28 C          63.5801   83.6904   14.7817 C.ar    1  UNL1        0.0574
     29 CL         63.0237   82.3259   14.5014 Cl      1  UNL1       -0.0823
     30 C          62.8223   84.6441   15.6569 C.ar    1  UNL1        0.0095
     31 N          61.2721   86.4807    8.6790 N.pl3   1  UNL1       -0.3046
     32 C          62.5160   85.7290    8.3079 C.3     1  UNL1        0.1081
     33 C          62.5044   84.7912    7.1372 C.3     1  UNL1        0.0938
     34 N          61.2489   84.6053    6.3377 N.3     1  UNL1       -0.2697
     35 C          60.0051   85.3570    6.7088 C.3     1  UNL1        0.0938
     36 C          60.0167   86.2947    7.8795 C.3     1  UNL1        0.1081
     37 C          61.2372   83.6676    5.1670 C.3     1  UNL1        0.0748
     38 C          61.9187   84.0557    3.8883 C.3     1  UNL1        0.0490
     39 C          61.1251   84.1729    2.6209 C.3     1  UNL1        0.1386
     40 O          61.6802   84.9383    1.4564 O.3     1  UNL1       -0.3819
     41 H          61.7513   85.8769    1.6907 H       1  UNL1        0.2104
@<TRIPOS>BOND
     1     1     2    1
     2     2     3    2
     3     3     4    1
     4     4    31    1
     5    31    32    1
     6    32    33    1
     7    33    34    1
     8    34    37    1
     9    37    38    1
    10    38    39    1
    11    39    40    1
    12    34    35    1
    13    35    36    1
    14     4     5    2
    15     5     6    1
    16     6     7    2
    17     7     8    1
    18     8    11    1
    19    11    12    1
    20    12    18    1
    21    18    20    1
    22    20    21    1
    23    21    22    1
    24    21    24    1
    25    24    25   ar
    26    25    26   ar
    27    26    27   ar
    28    27    28   ar
    29    28    29    1
    30    28    30   ar
    31    12    13    2
    32    13    14    1
    33    14    15    2
    34    15    16    1
    35    16    17    2
    36     8     9    2
    37     9    10    1
    38    10     2    1
    39    36    31    1
    40    10     6    1
    41    16    11    1
    42    30    24   ar
    43    40    41    1
    44    18    19    1
    45    22    23    1
