@<TRIPOS>MOLECULE
*****
 30 33 0 0 0
SMALL
GASTEIGER

@<TRIPOS>ATOM
      1 N          64.3743   91.4269   12.3326 N.am    1  UNL1       -0.2723
      2 C          65.4213   92.4817   12.5350 C.2     1  UNL1        0.2685
      3 O          65.7170   93.4646   11.4412 O.2     1  UNL1       -0.2682
      4 C          62.8728   86.4362   17.8869 C.3     1  UNL1        0.0896
      5 N          63.1685   87.4190   16.7930 N.3     1  UNL1       -0.2715
      6 C          63.7786   87.0984   15.4607 C.3     1  UNL1        0.0722
      7 C          63.8932   88.3763   14.6837 C.3     1  UNL1        0.0190
      8 C          64.3411   88.9679   13.3801 C.3     1  UNL1        0.0213
      9 C          64.0786   90.4440   13.4265 C.3     1  UNL1        0.0761
     10 C          63.4685   90.7647   14.7587 C.3     1  UNL1        0.0213
     11 C          63.3539   89.4868   15.5357 C.3     1  UNL1        0.0190
     12 C          62.9061   88.8952   16.8393 C.3     1  UNL1        0.0722
     13 C          66.1726   92.5538   13.8314 C.ar    1  UNL1        0.1535
     14 C          67.6405   92.3057   14.0146 C.ar    1  UNL1        0.1012
     15 N          67.9630   92.4852   15.4684 N.ar    1  UNL1       -0.3057
     16 C          69.3165   92.3325   16.0966 C.3     1  UNL1        0.1321
     17 C          66.6945   92.8442   16.1838 C.ar    1  UNL1        0.1787
     18 N          65.5878   92.8866   15.1720 N.ar    1  UNL1       -0.2192
     19 C          63.6230   91.3548   11.0364 C.3     1  UNL1        0.1204
     20 C          62.5007   90.3731   10.8735 C.ar    1  UNL1       -0.0022
     21 C          61.1371   90.6973   11.4080 C.ar    1  UNL1       -0.0003
     22 C          60.0148   89.7155   11.2452 C.ar    1  UNL1        0.0293
     23 C          60.2560   88.4096   10.5477 C.ar    1  UNL1        0.1440
     24 F          59.1337   87.4278   10.3849 F       1  UNL1       -0.2042
     25 C          61.6195   88.0854   10.0132 C.ar    1  UNL1        0.0985
     26 C          62.7419   89.0672   10.1761 C.ar    1  UNL1        0.0035
     27 C          61.8607   86.7795    9.3158 C.3     1  UNL1        0.4207
     28 F          62.1018   85.4735    8.6184 F       1  UNL1       -0.1658
     29 F          62.6917   86.3140   10.4747 F       1  UNL1       -0.1658
     30 F          61.0298   87.2449    8.1570 F       1  UNL1       -0.1658
@<TRIPOS>BOND
     1     4     5    1
     2     5     6    1
     3     7     6    1
     4     7     8    1
     5     8     9    1
     6     9     1    1
     7     1    19    1
     8    19    20    1
     9    20    21   ar
    10    21    22   ar
    11    22    23   ar
    12    23    24    1
    13    23    25   ar
    14    25    27    1
    15    27    28    1
    16    27    29    1
    17    27    30    1
    18    25    26   ar
    19     1     2   am
    20     2     3    2
    21     2    13    1
    22    13    14   ar
    23    14    15   ar
    24    15    16    1
    25    15    17   ar
    26    17    18   ar
    27     9    10    1
    28    11    10    1
    29    11    12    1
    30    12     5    1
    31    11     7    1
    32    26    20   ar
    33    18    13   ar
@<TRIPOS>MOLECULE
*****
 30 33 0 0 0
SMALL
GASTEIGER

@<TRIPOS>ATOM
      1 N          64.2284   90.7036   14.2473 N.am    1  UNL1       -0.2723
      2 C          65.4259   91.5832   14.0426 C.2     1  UNL1        0.2685
      3 O          66.2490   92.0154   15.2198 O.2     1  UNL1       -0.2682
      4 C          60.0491   88.5090    8.2700 C.3     1  UNL1        0.0896
      5 N          60.8722   88.9412    9.4471 N.3     1  UNL1       -0.2715
      6 C          60.6925   90.2071   10.2315 C.3     1  UNL1        0.0722
      7 C          61.7287   90.2316   11.3158 C.3     1  UNL1        0.0190
      8 C          62.2581   91.0292   12.4706 C.3     1  UNL1        0.0213
      9 C          63.4053   90.2714   13.0701 C.3     1  UNL1        0.0761
     10 C          63.5850   89.0055   12.2858 C.3     1  UNL1        0.0213
     11 C          62.5488   88.9809   11.2016 C.3     1  UNL1        0.0190
     12 C          62.0194   88.1834   10.0467 C.3     1  UNL1        0.0722
     13 C          65.8005   92.0308   12.6608 C.ar    1  UNL1        0.1535
     14 C          67.1524   91.8933   12.0257 C.ar    1  UNL1        0.1012
     15 N          67.0764   92.4718   10.6438 N.ar    1  UNL1       -0.3057
     16 C          68.2017   92.5429    9.6546 C.3     1  UNL1        0.1321
     17 C          65.6775   92.9669   10.4249 C.ar    1  UNL1        0.1787
     18 N          64.8888   92.6943   11.6715 N.ar    1  UNL1       -0.2192
     19 C          63.8538   90.2561   15.6291 C.3     1  UNL1        0.1204
     20 C          63.6727   88.7960   15.9213 C.ar    1  UNL1       -0.0022
     21 C          62.9456   88.3637   17.1601 C.ar    1  UNL1       -0.0003
     22 C          62.7644   86.9036   17.4524 C.ar    1  UNL1        0.0293
     23 C          63.3103   85.8759   16.5058 C.ar    1  UNL1        0.1440
     24 F          63.1291   84.4159   16.7981 F       1  UNL1       -0.2042
     25 C          64.0373   86.3083   15.2671 C.ar    1  UNL1        0.0985
     26 C          64.2185   87.7683   14.9749 C.ar    1  UNL1        0.0035
     27 C          64.5832   85.2806   14.3206 C.3     1  UNL1        0.4207
     28 F          65.1291   84.2529   13.3741 F       1  UNL1       -0.1658
     29 F          63.1936   84.9876   13.8373 F       1  UNL1       -0.1658
     30 F          65.9726   85.5735   14.8039 F       1  UNL1       -0.1658
@<TRIPOS>BOND
     1     4     5    1
     2     5     6    1
     3     7     6    1
     4     7     8    1
     5     8     9    1
     6     9     1    1
     7     1    19    1
     8    19    20    1
     9    20    21   ar
    10    21    22   ar
    11    22    23   ar
    12    23    24    1
    13    23    25   ar
    14    25    27    1
    15    27    28    1
    16    27    29    1
    17    27    30    1
    18    25    26   ar
    19     1     2   am
    20     2     3    2
    21     2    13    1
    22    13    14   ar
    23    14    15   ar
    24    15    16    1
    25    15    17   ar
    26    17    18   ar
    27     9    10    1
    28    11    10    1
    29    11    12    1
    30    12     5    1
    31    11     7    1
    32    26    20   ar
    33    18    13   ar
@<TRIPOS>MOLECULE
*****
 30 33 0 0 0
SMALL
GASTEIGER

@<TRIPOS>ATOM
      1 N          64.5246   91.4722   12.7531 N.am    1  UNL1       -0.2723
      2 C          63.7979   91.4949   11.4411 C.2     1  UNL1        0.2685
      3 O          64.1427   92.5288   10.4105 O.2     1  UNL1       -0.2682
      4 C          62.7739   86.2222   17.9860 C.3     1  UNL1        0.0896
      5 N          63.1187   87.2562   16.9554 N.3     1  UNL1       -0.2715
      6 C          63.6701   86.9871   15.5867 C.3     1  UNL1        0.0722
      7 C          63.8648   88.3053   14.8979 C.3     1  UNL1        0.0190
      8 C          64.3259   88.9538   13.6264 C.3     1  UNL1        0.0213
      9 C          64.1798   90.4383   13.7837 C.3     1  UNL1        0.0761
     10 C          63.6284   90.7074   15.1524 C.3     1  UNL1        0.0213
     11 C          63.4337   89.3892   15.8411 C.3     1  UNL1        0.0190
     12 C          62.9726   88.7407   17.1127 C.3     1  UNL1        0.0722
     13 C          62.7264   90.4835   11.1596 C.ar    1  UNL1        0.1535
     14 C          62.7915   89.3929   10.1320 C.ar    1  UNL1        0.1012
     15 N          61.5071   88.6206   10.1936 N.ar    1  UNL1       -0.3057
     16 C          61.1451   87.4419    9.3394 C.3     1  UNL1        0.1321
     17 C          60.6481   89.2341   11.2593 C.ar    1  UNL1        0.1787
     18 N          61.4017   90.3855   11.8564 N.ar    1  UNL1       -0.2192
     19 C          65.5960   92.4835   13.0345 C.3     1  UNL1        0.1204
     20 C          66.2147   93.2545   11.9062 C.ar    1  UNL1       -0.0022
     21 C          65.9559   94.7260   11.7728 C.ar    1  UNL1       -0.0003
     22 C          66.5745   95.4969   10.6445 C.ar    1  UNL1        0.0293
     23 C          67.4519   94.7964    9.6498 C.ar    1  UNL1        0.1440
     24 F          68.0705   95.5674    8.5215 F       1  UNL1       -0.2042
     25 C          67.7107   93.3250    9.7833 C.ar    1  UNL1        0.0985
     26 C          67.0921   92.5540   10.9115 C.ar    1  UNL1        0.0035
     27 C          68.5881   92.6245    8.7886 C.3     1  UNL1        0.4207
     28 F          69.4655   91.9240    7.7938 F       1  UNL1       -0.1658
     29 F          69.1522   91.7720    9.8864 F       1  UNL1       -0.1658
     30 F          68.0240   93.4769    7.6908 F       1  UNL1       -0.1658
@<TRIPOS>BOND
     1     4     5    1
     2     5     6    1
     3     7     6    1
     4     7     8    1
     5     8     9    1
     6     9     1    1
     7     1    19    1
     8    19    20    1
     9    20    21   ar
    10    21    22   ar
    11    22    23   ar
    12    23    24    1
    13    23    25   ar
    14    25    27    1
    15    27    28    1
    16    27    29    1
    17    27    30    1
    18    25    26   ar
    19     1     2   am
    20     2     3    2
    21     2    13    1
    22    13    14   ar
    23    14    15   ar
    24    15    16    1
    25    15    17   ar
    26    17    18   ar
    27     9    10    1
    28    11    10    1
    29    11    12    1
    30    12     5    1
    31    11     7    1
    32    26    20   ar
    33    18    13   ar
@<TRIPOS>MOLECULE
*****
 30 33 0 0 0
SMALL
GASTEIGER

@<TRIPOS>ATOM
      1 N          64.1966   84.5089   14.0759 N.am    1  UNL1       -0.2723
      2 C          63.9261   83.2504   14.8459 C.2     1  UNL1        0.2685
      3 O          64.5436   83.0511   16.1983 O.2     1  UNL1       -0.2682
      4 C          61.0610   85.5204    7.2089 C.3     1  UNL1        0.0896
      5 N          61.6785   85.3212    8.5612 N.3     1  UNL1       -0.2715
      6 C          61.1989   85.9262    9.8473 C.3     1  UNL1        0.0722
      7 C          62.1080   85.4609   10.9459 C.3     1  UNL1        0.0190
      8 C          62.3735   85.5472   12.4197 C.3     1  UNL1        0.0213
      9 C          63.5791   84.7081   12.7235 C.3     1  UNL1        0.0761
     10 C          64.0588   84.1031   11.4375 C.3     1  UNL1        0.0213
     11 C          63.1496   84.5684   10.3389 C.3     1  UNL1        0.0190
     12 C          62.8842   84.4821    8.8651 C.3     1  UNL1        0.0722
     13 C          63.0380   82.1910   14.2635 C.ar    1  UNL1        0.1535
     14 C          61.6138   81.9237   14.6507 C.ar    1  UNL1        0.1012
     15 N          61.1137   80.7805   13.8182 N.ar    1  UNL1       -0.3057
     16 C          59.7397   80.1817   13.8771 C.3     1  UNL1        0.1321
     17 C          62.2290   80.3413   12.9164 C.ar    1  UNL1        0.1787
     18 N          63.4183   81.2130   13.1916 N.ar    1  UNL1       -0.2192
     19 C          65.0847   85.5681   14.6583 C.3     1  UNL1        0.1204
     20 C          64.4908   86.8478   15.1681 C.ar    1  UNL1       -0.0022
     21 C          63.6903   86.8500   16.4367 C.ar    1  UNL1       -0.0003
     22 C          63.0964   88.1296   16.9465 C.ar    1  UNL1        0.0293
     23 C          63.3031   89.4070   16.1877 C.ar    1  UNL1        0.1440
     24 F          62.7092   90.6866   16.6975 F       1  UNL1       -0.2042
     25 C          64.1035   89.4047   14.9191 C.ar    1  UNL1        0.0985
     26 C          64.6974   88.1251   14.4093 C.ar    1  UNL1        0.0035
     27 C          64.3101   90.6820   14.1604 C.3     1  UNL1        0.4207
     28 F          64.5168   91.9594   13.4016 F       1  UNL1       -0.1658
     29 F          62.9477   90.5394   13.5492 F       1  UNL1       -0.1658
     30 F          65.6725   90.8247   14.7715 F       1  UNL1       -0.1658
@<TRIPOS>BOND
     1     4     5    1
     2     5     6    1
     3     7     6    1
     4     7     8    1
     5     8     9    1
     6     9     1    1
     7     1    19    1
     8    19    20    1
     9    20    21   ar
    10    21    22   ar
    11    22    23   ar
    12    23    24    1
    13    23    25   ar
    14    25    27    1
    15    27    28    1
    16    27    29    1
    17    27    30    1
    18    25    26   ar
    19     1     2   am
    20     2     3    2
    21     2    13    1
    22    13    14   ar
    23    14    15   ar
    24    15    16    1
    25    15    17   ar
    26    17    18   ar
    27     9    10    1
    28    11    10    1
    29    11    12    1
    30    12     5    1
    31    11     7    1
    32    26    20   ar
    33    18    13   ar
@<TRIPOS>MOLECULE
*****
 30 33 0 0 0
SMALL
GASTEIGER

@<TRIPOS>ATOM
      1 N          61.8759   88.4710   11.5005 N.am    1  UNL1       -0.2723
      2 C          61.2446   88.7273   10.1643 C.2     1  UNL1        0.2685
      3 O          60.8047   90.1133    9.7960 O.2     1  UNL1       -0.2682
      4 C          64.1092   81.4334   13.3704 C.3     1  UNL1        0.0896
      5 N          63.6693   82.8194   13.0021 N.3     1  UNL1       -0.2715
      6 C          62.5640   83.1701   12.0507 C.3     1  UNL1        0.0722
      7 C          62.4692   84.6654   11.9812 C.3     1  UNL1        0.0190
      8 C          61.7274   85.8064   11.3502 C.3     1  UNL1        0.0213
      9 C          62.3157   87.0850   11.8688 C.3     1  UNL1        0.0761
     10 C          63.4210   86.7344   12.8202 C.3     1  UNL1        0.0213
     11 C          63.5159   85.2390   12.8897 C.3     1  UNL1        0.0190
     12 C          64.2576   84.0981   13.5207 C.3     1  UNL1        0.0722
     13 C          61.0530   87.5976    9.1962 C.ar    1  UNL1        0.1535
     14 C          62.1412   86.7630    8.5886 C.ar    1  UNL1        0.1012
     15 N          61.5003   85.7538    7.6827 N.ar    1  UNL1       -0.3057
     16 C          62.2178   84.7160    6.8715 C.3     1  UNL1        0.1321
     17 C          60.0160   85.9646    7.7304 C.ar    1  UNL1        0.1787
     18 N          59.7394   87.1041    8.6658 N.ar    1  UNL1       -0.2192
     19 C          62.0675   89.6006   12.4685 C.3     1  UNL1        0.1204
     20 C          63.2739   90.4854   12.3595 C.ar    1  UNL1       -0.0022
     21 C          63.5589   91.2102   11.0775 C.ar    1  UNL1       -0.0003
     22 C          64.7653   92.0949   10.9684 C.ar    1  UNL1        0.0293
     23 C          65.6866   92.2549   12.1413 C.ar    1  UNL1        0.1440
     24 F          66.8930   93.1396   12.0323 F       1  UNL1       -0.2042
     25 C          65.4015   91.5301   13.4233 C.ar    1  UNL1        0.0985
     26 C          64.1951   90.6454   13.5323 C.ar    1  UNL1        0.0035
     27 C          66.3228   91.6901   14.5961 C.3     1  UNL1        0.4207
     28 F          67.2441   91.8500   15.7690 F       1  UNL1       -0.1658
     29 F          65.1644   92.1178   15.4477 F       1  UNL1       -0.1658
     30 F          67.4811   91.2624   13.7446 F       1  UNL1       -0.1658
@<TRIPOS>BOND
     1     4     5    1
     2     5     6    1
     3     7     6    1
     4     7     8    1
     5     8     9    1
     6     9     1    1
     7     1    19    1
     8    19    20    1
     9    20    21   ar
    10    21    22   ar
    11    22    23   ar
    12    23    24    1
    13    23    25   ar
    14    25    27    1
    15    27    28    1
    16    27    29    1
    17    27    30    1
    18    25    26   ar
    19     1     2   am
    20     2     3    2
    21     2    13    1
    22    13    14   ar
    23    14    15   ar
    24    15    16    1
    25    15    17   ar
    26    17    18   ar
    27     9    10    1
    28    11    10    1
    29    11    12    1
    30    12     5    1
    31    11     7    1
    32    26    20   ar
    33    18    13   ar
@<TRIPOS>MOLECULE
*****
 30 33 0 0 0
SMALL
GASTEIGER

@<TRIPOS>ATOM
      1 N          61.9483   88.6314   11.5448 N.am    1  UNL1       -0.2723
      2 C          61.3748   88.8493   10.1760 C.2     1  UNL1        0.2685
      3 O          60.9467   90.2230    9.7522 O.2     1  UNL1       -0.2682
      4 C          64.1223   81.6562   13.6969 C.3     1  UNL1        0.0896
      5 N          63.6942   83.0299   13.2731 N.3     1  UNL1       -0.2715
      6 C          64.3072   84.3227   13.7235 C.3     1  UNL1        0.0722
      7 C          63.5697   85.4438   13.0532 C.3     1  UNL1        0.0190
      8 C          63.4927   86.9356   12.9173 C.3     1  UNL1        0.0213
      9 C          62.3764   87.2577   11.9686 C.3     1  UNL1        0.0761
     10 C          61.7634   85.9650   11.5182 C.3     1  UNL1        0.0213
     11 C          62.5009   84.8439   12.1885 C.3     1  UNL1        0.0190
     12 C          62.5778   83.3520   12.3244 C.3     1  UNL1        0.0722
     13 C          61.2295   87.6934    9.2310 C.ar    1  UNL1        0.1535
     14 C          62.3400   86.8165    8.7334 C.ar    1  UNL1        0.1012
     15 N          61.7450   85.7927    7.8125 N.ar    1  UNL1       -0.3057
     16 C          62.4963   84.7141    7.0901 C.3     1  UNL1        0.1321
     17 C          60.2668   86.0370    7.7410 C.ar    1  UNL1        0.1787
     18 N          59.9481   87.2118    8.6177 N.ar    1  UNL1       -0.2192
     19 C          62.0936   89.7872   12.4897 C.3     1  UNL1        0.1204
     20 C          63.4225   90.4650   12.6469 C.ar    1  UNL1       -0.0022
     21 C          64.2016   90.3024   13.9183 C.ar    1  UNL1       -0.0003
     22 C          65.5305   90.9802   14.0755 C.ar    1  UNL1        0.0293
     23 C          66.0802   91.8206   12.9611 C.ar    1  UNL1        0.1440
     24 F          67.4090   92.4984   13.1183 F       1  UNL1       -0.2042
     25 C          65.3010   91.9832   11.6898 C.ar    1  UNL1        0.0985
     26 C          63.9721   91.3054   11.5326 C.ar    1  UNL1        0.0035
     27 C          65.8507   92.8236   10.5756 C.3     1  UNL1        0.4207
     28 F          66.4005   93.6640    9.4613 F       1  UNL1       -0.1658
     29 F          64.7066   93.7809   10.7331 F       1  UNL1       -0.1658
     30 F          66.9947   91.8663   10.4180 F       1  UNL1       -0.1658
@<TRIPOS>BOND
     1     4     5    1
     2     5     6    1
     3     7     6    1
     4     7     8    1
     5     8     9    1
     6     9     1    1
     7     1    19    1
     8    19    20    1
     9    20    21   ar
    10    21    22   ar
    11    22    23   ar
    12    23    24    1
    13    23    25   ar
    14    25    27    1
    15    27    28    1
    16    27    29    1
    17    27    30    1
    18    25    26   ar
    19     1     2   am
    20     2     3    2
    21     2    13    1
    22    13    14   ar
    23    14    15   ar
    24    15    16    1
    25    15    17   ar
    26    17    18   ar
    27     9    10    1
    28    11    10    1
    29    11    12    1
    30    12     5    1
    31    11     7    1
    32    26    20   ar
    33    18    13   ar
@<TRIPOS>MOLECULE
*****
 30 33 0 0 0
SMALL
GASTEIGER

@<TRIPOS>ATOM
      1 N          64.3754   91.5533   11.8146 N.am    1  UNL1       -0.2723
      2 C          65.6162   92.3946   11.7635 C.2     1  UNL1        0.2685
      3 O          65.8855   93.2621   10.5698 O.2     1  UNL1       -0.2682
      4 C          63.0079   87.1483   17.8757 C.3     1  UNL1        0.0896
      5 N          63.2772   88.0158   16.6820 N.3     1  UNL1       -0.2715
      6 C          63.0694   89.4994   16.6053 C.3     1  UNL1        0.0722
      7 C          63.4654   89.9526   15.2313 C.3     1  UNL1        0.0190
      8 C          63.5816   91.1495   14.3348 C.3     1  UNL1        0.0213
      9 C          64.1061   90.6858   13.0082 C.3     1  UNL1        0.0761
     10 C          64.3140   89.2023   13.0848 C.3     1  UNL1        0.0213
     11 C          63.9180   88.7491   14.4588 C.3     1  UNL1        0.0190
     12 C          63.8017   87.5522   15.3554 C.3     1  UNL1        0.0722
     13 C          66.5877   92.3684   12.9061 C.ar    1  UNL1        0.1535
     14 C          66.3513   92.9282   14.2774 C.ar    1  UNL1        0.1012
     15 N          67.5836   92.6835   15.0968 N.ar    1  UNL1       -0.3057
     16 C          67.7829   93.0803   16.5296 C.3     1  UNL1        0.1321
     17 C          68.5818   91.9726   14.2318 C.ar    1  UNL1        0.1787
     18 N          67.9663   91.7777   12.8778 N.ar    1  UNL1       -0.2192
     19 C          63.4039   91.5796   10.6720 C.3     1  UNL1        0.1204
     20 C          62.3869   90.4866   10.5270 C.ar    1  UNL1       -0.0022
     21 C          62.6136   89.3767    9.5438 C.ar    1  UNL1       -0.0003
     22 C          61.5965   88.2838    9.3988 C.ar    1  UNL1        0.0293
     23 C          60.3527   88.3008   10.2371 C.ar    1  UNL1        0.1440
     24 F          59.3356   87.2078   10.0921 F       1  UNL1       -0.2042
     25 C          60.1260   89.4107   11.2203 C.ar    1  UNL1        0.0985
     26 C          61.1431   90.5036   11.3652 C.ar    1  UNL1        0.0035
     27 C          58.8822   89.4276   12.0585 C.3     1  UNL1        0.4207
     28 F          57.6383   89.4446   12.8967 F       1  UNL1       -0.1658
     29 F          59.1946   88.0453   12.5502 F       1  UNL1       -0.1658
     30 F          58.5697   90.8098   11.5669 F       1  UNL1       -0.1658
@<TRIPOS>BOND
     1     4     5    1
     2     5     6    1
     3     7     6    1
     4     7     8    1
     5     8     9    1
     6     9     1    1
     7     1    19    1
     8    19    20    1
     9    20    21   ar
    10    21    22   ar
    11    22    23   ar
    12    23    24    1
    13    23    25   ar
    14    25    27    1
    15    27    28    1
    16    27    29    1
    17    27    30    1
    18    25    26   ar
    19     1     2   am
    20     2     3    2
    21     2    13    1
    22    13    14   ar
    23    14    15   ar
    24    15    16    1
    25    15    17   ar
    26    17    18   ar
    27     9    10    1
    28    11    10    1
    29    11    12    1
    30    12     5    1
    31    11     7    1
    32    26    20   ar
    33    18    13   ar
@<TRIPOS>MOLECULE
*****
 30 33 0 0 0
SMALL
GASTEIGER

@<TRIPOS>ATOM
      1 N          62.0650   87.3156   10.5538 N.am    1  UNL1       -0.2723
      2 C          60.5876   87.4743   10.3486 C.2     1  UNL1        0.2685
      3 O          59.8580   86.5587    9.4108 O.2     1  UNL1       -0.2682
      4 C          65.7695   91.9647   15.3155 C.3     1  UNL1        0.0896
      5 N          65.0399   91.0491   14.3778 N.3     1  UNL1       -0.2715
      6 C          64.4815   91.4231   13.0368 C.3     1  UNL1        0.0722
      7 C          63.8371   90.2039   12.4465 C.3     1  UNL1        0.0190
      8 C          63.0937   89.6815   11.2530 C.3     1  UNL1        0.0213
      9 C          62.7945   88.2312   11.4916 C.3     1  UNL1        0.0761
     10 C          63.3529   87.8572   12.8325 C.3     1  UNL1        0.0213
     11 C          63.9973   89.0764   13.4227 C.3     1  UNL1        0.0190
     12 C          64.7407   89.5987   14.6163 C.3     1  UNL1        0.0722
     13 C          59.8397   88.5486   11.0812 C.ar    1  UNL1        0.1535
     14 C          59.6816   89.9725   10.6369 C.ar    1  UNL1        0.1012
     15 N          58.8629   90.6916   11.6677 N.ar    1  UNL1       -0.3057
     16 C          58.4624   92.1364   11.6247 C.3     1  UNL1        0.1321
     17 C          58.5150   89.7120   12.7491 C.ar    1  UNL1        0.1787
     18 N          59.1187   88.3875   12.3866 N.ar    1  UNL1       -0.2192
     19 C          62.8128   86.2414    9.8212 C.3     1  UNL1        0.1204
     20 C          63.0759   84.9232   10.4871 C.ar    1  UNL1       -0.0022
     21 C          63.7049   83.8037    9.7118 C.ar    1  UNL1       -0.0003
     22 C          63.9680   82.4856   10.3776 C.ar    1  UNL1        0.0293
     23 C          63.6020   82.2870   11.8187 C.ar    1  UNL1        0.1440
     24 F          63.8651   80.9689   12.4846 F       1  UNL1       -0.2042
     25 C          62.9731   83.4065   12.5939 C.ar    1  UNL1        0.0985
     26 C          62.7100   84.7247   11.9281 C.ar    1  UNL1        0.0035
     27 C          62.6072   83.2079   14.0350 C.3     1  UNL1        0.4207
     28 F          62.2413   83.0093   15.4761 F       1  UNL1       -0.1658
     29 F          63.5745   84.2846   14.4290 F       1  UNL1       -0.1658
     30 F          61.6400   82.1313   13.6410 F       1  UNL1       -0.1658
@<TRIPOS>BOND
     1     4     5    1
     2     5     6    1
     3     7     6    1
     4     7     8    1
     5     8     9    1
     6     9     1    1
     7     1    19    1
     8    19    20    1
     9    20    21   ar
    10    21    22   ar
    11    22    23   ar
    12    23    24    1
    13    23    25   ar
    14    25    27    1
    15    27    28    1
    16    27    29    1
    17    27    30    1
    18    25    26   ar
    19     1     2   am
    20     2     3    2
    21     2    13    1
    22    13    14   ar
    23    14    15   ar
    24    15    16    1
    25    15    17   ar
    26    17    18   ar
    27     9    10    1
    28    11    10    1
    29    11    12    1
    30    12     5    1
    31    11     7    1
    32    26    20   ar
    33    18    13   ar
@<TRIPOS>MOLECULE
*****
 30 33 0 0 0
SMALL
GASTEIGER

@<TRIPOS>ATOM
      1 N          64.4067   91.6424   12.3548 N.am    1  UNL1       -0.2723
      2 C          64.4445   92.0587   10.9143 C.2     1  UNL1        0.2685
      3 O          63.3194   91.6844    9.9956 O.2     1  UNL1       -0.2682
      4 C          70.1197   93.5429   17.0197 C.3     1  UNL1        0.0896
      5 N          68.9945   93.1686   16.1010 N.3     1  UNL1       -0.2715
      6 C          68.2192   94.1098   15.2274 C.3     1  UNL1        0.0722
      7 C          67.1927   93.3103   14.4811 C.3     1  UNL1        0.0190
      8 C          66.0791   93.3978   13.4799 C.3     1  UNL1        0.0213
      9 C          65.5318   92.0166   13.2735 C.3     1  UNL1        0.0761
     10 C          66.3070   91.0754   14.1470 C.3     1  UNL1        0.0213
     11 C          67.3336   91.8749   14.8933 C.3     1  UNL1        0.0190
     12 C          68.4471   91.7874   15.8945 C.3     1  UNL1        0.0722
     13 C          65.6076   92.8493   10.3924 C.ar    1  UNL1        0.1535
     14 C          65.6183   94.3235   10.1156 C.ar    1  UNL1        0.1012
     15 N          66.9813   94.6899    9.6078 N.ar    1  UNL1       -0.3057
     16 C          67.4333   96.0629    9.2074 C.3     1  UNL1        0.1321
     17 C          67.8130   93.4421    9.5707 C.ar    1  UNL1        0.1787
     18 N          66.9640   92.3045   10.0556 N.ar    1  UNL1       -0.2192
     19 C          63.2437   90.8517   12.8766 C.3     1  UNL1        0.1204
     20 C          63.2063   89.3633   12.6942 C.ar    1  UNL1       -0.0022
     21 C          63.8796   88.4683   13.6921 C.ar    1  UNL1       -0.0003
     22 C          63.8423   86.9799   13.5097 C.ar    1  UNL1        0.0293
     23 C          63.1316   86.3865   12.3295 C.ar    1  UNL1        0.1440
     24 F          63.0943   84.8981   12.1471 F       1  UNL1       -0.2042
     25 C          62.4584   87.2816   11.3317 C.ar    1  UNL1        0.0985
     26 C          62.4958   88.7700   11.5141 C.ar    1  UNL1        0.0035
     27 C          61.7478   86.6882   10.1515 C.3     1  UNL1        0.4207
     28 F          61.0372   86.0947    8.9712 F       1  UNL1       -0.1658
     29 F          62.7099   87.3741    9.2273 F       1  UNL1       -0.1658
     30 F          60.7858   86.0023   11.0756 F       1  UNL1       -0.1658
@<TRIPOS>BOND
     1     4     5    1
     2     5     6    1
     3     7     6    1
     4     7     8    1
     5     8     9    1
     6     9     1    1
     7     1    19    1
     8    19    20    1
     9    20    21   ar
    10    21    22   ar
    11    22    23   ar
    12    23    24    1
    13    23    25   ar
    14    25    27    1
    15    27    28    1
    16    27    29    1
    17    27    30    1
    18    25    26   ar
    19     1     2   am
    20     2     3    2
    21     2    13    1
    22    13    14   ar
    23    14    15   ar
    24    15    16    1
    25    15    17   ar
    26    17    18   ar
    27     9    10    1
    28    11    10    1
    29    11    12    1
    30    12     5    1
    31    11     7    1
    32    26    20   ar
    33    18    13   ar
