@<TRIPOS>MOLECULE
*****
 33 36 0 0 0
SMALL
GASTEIGER

@<TRIPOS>ATOM
      1 C          62.1020   89.3753   11.1334 C.ar    1  UNL1        0.0522
      2 C          62.3026   87.9125   11.3975 C.ar    1  UNL1        0.0167
      3 C          61.2716   86.9206   10.9463 C.ar    1  UNL1        0.0505
      4 C          60.0402   87.3918   10.2310 C.ar    1  UNL1        0.0170
      5 C          59.8397   88.8547    9.9669 C.ar    1  UNL1        0.0307
      6 C          60.8707   89.8465   10.4182 C.ar    1  UNL1        0.1401
      7 F          60.6702   91.3094   10.1541 F       1  UNL1       -0.2044
      8 C          63.1490   90.6284   10.1076 C.3     1  UNL1        0.0601
      9 C          63.1330   90.3671   11.5846 C.3     1  UNL1        0.2163
     10 C          64.1695   91.4497   11.5228 C.3     1  UNL1        0.1614
     11 N          64.8319   91.9265   12.7813 N.ar    1  UNL1       -0.2929
     12 C          65.8803   92.9699   13.0303 C.ar    1  UNL1        0.1503
     13 C          66.1543   93.0091   14.5046 C.ar    1  UNL1        0.1285
     14 N          65.2751   91.9899   15.1667 N.ar    1  UNL1       -0.2180
     15 C          64.4578   91.3208   14.1016 C.ar    1  UNL1        0.2279
     16 C          63.4214   90.2383   14.1634 C.2     1  UNL1        0.3476
     17 N          63.0473   89.6325   15.4837 N.pl3   1  UNL1       -0.2439
     18 N          62.7590   89.7615   12.9049 N.2     1  UNL1       -0.0653
     19 H          63.4821   89.9455   16.3097 H       1  UNL1        0.2885
     20 H          62.3670   88.9220   15.5242 H       1  UNL1        0.2885
     21 C          66.5392   93.8242   11.9882 C.1     1  UNL1        0.1196
     22 N          67.1980   94.6785   10.9460 N.1     1  UNL1       -0.1893
     23 N          61.4721   85.4578   11.2104 N.am    1  UNL1       -0.2791
     24 C          62.3540   85.0134   12.3395 C.2     1  UNL1        0.2672
     25 O          63.0353   86.0319   13.2046 O.2     1  UNL1       -0.2682
     26 H          61.0249   84.7893   10.6426 H       1  UNL1        0.1552
     27 C          62.5545   83.5505   12.6036 C.ar    1  UNL1        0.1349
     28 C          62.9588   82.6352   11.4862 C.ar    1  UNL1        0.0261
     29 C          63.1593   81.1723   11.7502 C.ar    1  UNL1        0.0329
     30 C          62.9555   80.6247   13.1317 C.ar    1  UNL1        0.1592
     31 F          63.1560   79.1618   13.3958 F       1  UNL1       -0.2025
     32 C          62.5511   81.5401   14.2492 C.ar    1  UNL1        0.1285
     33 N          62.3506   83.0029   13.9852 N.ar    1  UNL1       -0.2369
@<TRIPOS>BOND
     1     9     8    1
     2     9     1    1
     3     1     2   ar
     4     2     3   ar
     5     3    23    1
     6    23    24   am
     7    24    25    2
     8    24    27    1
     9    27    28   ar
    10    28    29   ar
    11    29    30   ar
    12    30    31    1
    13    30    32   ar
    14    32    33   ar
    15     3     4   ar
    16     4     5   ar
    17     5     6   ar
    18     6     7    1
    19     9    10    1
    20    10    11    1
    21    11    12   ar
    22    12    21    1
    23    21    22    3
    24    12    13   ar
    25    13    14   ar
    26    14    15   ar
    27    15    16    1
    28    16    17    1
    29    16    18    2
    30    18     9    1
    31     6     1   ar
    32    15    11   ar
    33    33    27   ar
    34    23    26    1
    35    17    19    1
    36    17    20    1
@<TRIPOS>MOLECULE
*****
 33 36 0 0 0
SMALL
GASTEIGER

@<TRIPOS>ATOM
      1 C          62.1577   86.8255   11.3267 C.ar    1  UNL1        0.0522
      2 C          63.1436   87.7893   11.9175 C.ar    1  UNL1        0.0167
      3 C          62.9280   89.2666   11.7716 C.ar    1  UNL1        0.0505
      4 C          61.7264   89.7799   11.0348 C.ar    1  UNL1        0.0170
      5 C          60.7405   88.8161   10.4440 C.ar    1  UNL1        0.0307
      6 C          60.9562   87.3388   10.5900 C.ar    1  UNL1        0.1401
      7 F          59.9703   86.3750    9.9992 F       1  UNL1       -0.2044
      8 C          62.2241   85.4438    9.9830 C.3     1  UNL1        0.0601
      9 C          62.3733   85.3482   11.4726 C.3     1  UNL1        0.2163
     10 C          62.5371   83.9041   11.1011 C.3     1  UNL1        0.1614
     11 N          62.7752   82.8775   12.1685 N.ar    1  UNL1       -0.2929
     12 C          62.9729   81.3920   12.1060 C.ar    1  UNL1        0.1503
     13 C          63.1695   80.8912   13.5062 C.ar    1  UNL1        0.1285
     14 N          63.0933   82.0673   14.4341 N.ar    1  UNL1       -0.2180
     15 C          62.8496   83.2950   13.6073 C.ar    1  UNL1        0.2279
     16 C          62.6858   84.7390   13.9787 C.2     1  UNL1        0.3476
     17 N          62.7602   85.1564   15.4176 N.pl3   1  UNL1       -0.2439
     18 N          62.4477   85.7656   12.9113 N.2     1  UNL1       -0.0653
     19 H          62.9165   84.4826   16.1181 H       1  UNL1        0.2885
     20 H          62.6527   86.1042   15.6613 H       1  UNL1        0.2885
     21 C          62.9739   80.5542   10.8617 C.1     1  UNL1        0.1196
     22 N          62.9748   79.7164    9.6175 N.1     1  UNL1       -0.1893
     23 N          63.9139   90.2303   12.3623 N.am    1  UNL1       -0.2791
     24 C          64.2030   90.1999   13.8339 C.2     1  UNL1        0.2672
     25 O          63.5062   89.2057   14.7147 O.2     1  UNL1       -0.2682
     26 H          64.3713   90.8829   11.7842 H       1  UNL1        0.1552
     27 C          65.1890   91.1637   14.4247 C.ar    1  UNL1        0.1349
     28 C          66.4488   91.4973   13.6821 C.ar    1  UNL1        0.0261
     29 C          67.4348   92.4611   14.2729 C.ar    1  UNL1        0.0329
     30 C          67.1608   93.0913   15.6062 C.ar    1  UNL1        0.1592
     31 F          68.1467   94.0552   16.1970 F       1  UNL1       -0.2025
     32 C          65.9009   92.7577   16.3487 C.ar    1  UNL1        0.1285
     33 N          64.9149   91.7940   15.7580 N.ar    1  UNL1       -0.2369
@<TRIPOS>BOND
     1     9     8    1
     2     9     1    1
     3     1     2   ar
     4     2     3   ar
     5     3    23    1
     6    23    24   am
     7    24    25    2
     8    24    27    1
     9    27    28   ar
    10    28    29   ar
    11    29    30   ar
    12    30    31    1
    13    30    32   ar
    14    32    33   ar
    15     3     4   ar
    16     4     5   ar
    17     5     6   ar
    18     6     7    1
    19     9    10    1
    20    10    11    1
    21    11    12   ar
    22    12    21    1
    23    21    22    3
    24    12    13   ar
    25    13    14   ar
    26    14    15   ar
    27    15    16    1
    28    16    17    1
    29    16    18    2
    30    18     9    1
    31     6     1   ar
    32    15    11   ar
    33    33    27   ar
    34    23    26    1
    35    17    19    1
    36    17    20    1
@<TRIPOS>MOLECULE
*****
 33 36 0 0 0
SMALL
GASTEIGER

@<TRIPOS>ATOM
      1 C          62.8522   89.5529   11.5193 C.ar    1  UNL1        0.0522
      2 C          62.8113   88.0688   11.7324 C.ar    1  UNL1        0.0167
      3 C          62.0517   87.1948   10.7789 C.ar    1  UNL1        0.0505
      4 C          61.3330   87.8051    9.6123 C.ar    1  UNL1        0.0170
      5 C          61.3739   89.2893    9.3992 C.ar    1  UNL1        0.0307
      6 C          62.1335   90.1632   10.3528 C.ar    1  UNL1        0.1401
      7 F          62.1744   91.6475   10.1396 F       1  UNL1       -0.2044
      8 C          62.8197   89.6058   13.4467 C.3     1  UNL1        0.0601
      9 C          63.6119   90.4270   12.4728 C.3     1  UNL1        0.2163
     10 C          64.0963   91.0157   13.7646 C.3     1  UNL1        0.1614
     11 N          65.1091   92.1221   13.7514 N.ar    1  UNL1       -0.2929
     12 C          65.7680   92.8929   14.8566 C.ar    1  UNL1        0.1503
     13 C          66.7035   93.8869   14.2347 C.ar    1  UNL1        0.1285
     14 N          66.6228   93.7304   12.7451 N.ar    1  UNL1       -0.2180
     15 C          65.6374   92.6397   12.4463 C.ar    1  UNL1        0.2279
     16 C          65.1529   92.0509   11.1546 C.2     1  UNL1        0.3476
     17 N          65.6812   92.5684    9.8496 N.pl3   1  UNL1       -0.2439
     18 N          64.1401   90.9445   11.1679 N.2     1  UNL1       -0.0653
     19 H          66.3460   93.2946    9.8409 H       1  UNL1        0.2885
     20 H          65.3632   92.1820    9.0018 H       1  UNL1        0.2885
     21 C          65.5327   92.7031   16.3259 C.1     1  UNL1        0.1196
     22 N          65.2974   92.5133   17.7951 N.1     1  UNL1       -0.1893
     23 N          62.0108   85.7106   10.9920 N.am    1  UNL1       -0.2791
     24 C          62.6874   85.1054   12.1862 C.2     1  UNL1        0.2672
     25 O          63.4048   85.9844   13.1673 O.2     1  UNL1       -0.2682
     26 H          61.5399   85.1336   10.3481 H       1  UNL1        0.1552
     27 C          62.6465   83.6211   12.3993 C.ar    1  UNL1        0.1349
     28 C          63.0197   82.6925   11.2821 C.ar    1  UNL1        0.0261
     29 C          62.9788   81.2083   11.4952 C.ar    1  UNL1        0.0329
     30 C          62.5647   80.6527   12.8255 C.ar    1  UNL1        0.1592
     31 F          62.5238   79.1685   13.0387 F       1  UNL1       -0.2025
     32 C          62.1915   81.5815   13.9428 C.ar    1  UNL1        0.1285
     33 N          62.2323   83.0656   13.7297 N.ar    1  UNL1       -0.2369
@<TRIPOS>BOND
     1     9     8    1
     2     9     1    1
     3     1     2   ar
     4     2     3   ar
     5     3    23    1
     6    23    24   am
     7    24    25    2
     8    24    27    1
     9    27    28   ar
    10    28    29   ar
    11    29    30   ar
    12    30    31    1
    13    30    32   ar
    14    32    33   ar
    15     3     4   ar
    16     4     5   ar
    17     5     6   ar
    18     6     7    1
    19     9    10    1
    20    10    11    1
    21    11    12   ar
    22    12    21    1
    23    21    22    3
    24    12    13   ar
    25    13    14   ar
    26    14    15   ar
    27    15    16    1
    28    16    17    1
    29    16    18    2
    30    18     9    1
    31     6     1   ar
    32    15    11   ar
    33    33    27   ar
    34    23    26    1
    35    17    19    1
    36    17    20    1
@<TRIPOS>MOLECULE
*****
 33 36 0 0 0
SMALL
GASTEIGER

@<TRIPOS>ATOM
      1 C          63.2546   94.3428   -1.2452 C.ar    1  UNL1        0.0522
      2 C          62.4888   93.5137   -0.2573 C.ar    1  UNL1        0.0167
      3 C          62.9933   93.3647    1.1475 C.ar    1  UNL1        0.0505
      4 C          64.2637   94.0448    1.5641 C.ar    1  UNL1        0.0170
      5 C          65.0295   94.8739    0.5761 C.ar    1  UNL1        0.0307
      6 C          64.5249   95.0229   -0.8286 C.ar    1  UNL1        0.1401
      7 F          65.2907   95.8520   -1.8166 F       1  UNL1       -0.2044
      8 C          61.8031   95.4091   -1.9345 C.3     1  UNL1        0.0601
      9 C          62.7501   94.4918   -2.6500 C.3     1  UNL1        0.2163
     10 C          61.9166   94.9595   -3.8062 C.3     1  UNL1        0.1614
     11 N          62.2054   94.4581   -5.1901 N.ar    1  UNL1       -0.2929
     12 C          61.5595   94.7390   -6.5145 C.ar    1  UNL1        0.1503
     13 C          62.2826   93.9436   -7.5607 C.ar    1  UNL1        0.1285
     14 N          63.3753   93.1712   -6.8830 N.ar    1  UNL1       -0.2180
     15 C          63.3276   93.4891   -5.4179 C.ar    1  UNL1        0.2279
     16 C          64.1610   93.0216   -4.2617 C.2     1  UNL1        0.3476
     17 N          65.2832   92.0526   -4.4894 N.pl3   1  UNL1       -0.2439
     18 N          63.8722   93.5229   -2.8778 N.2     1  UNL1       -0.0653
     19 H          65.4727   91.7236   -5.3977 H       1  UNL1        0.2885
     20 H          65.8302   91.7457   -3.7305 H       1  UNL1        0.2885
     21 C          60.3951   95.6545   -6.7511 C.1     1  UNL1        0.1196
     22 N          59.2307   96.5700   -6.9877 N.1     1  UNL1       -0.1893
     23 N          62.2275   92.5356    2.1354 N.am    1  UNL1       -0.2791
     24 C          60.9519   93.0599    2.7254 C.2     1  UNL1        0.2672
     25 O          60.4422   94.4133    2.3275 O.2     1  UNL1       -0.2682
     26 H          62.5620   91.6473    2.3966 H       1  UNL1        0.1552
     27 C          60.1861   92.2308    3.7134 C.ar    1  UNL1        0.1349
     28 C          60.9010   91.2137    4.5526 C.ar    1  UNL1        0.0261
     29 C          60.1352   90.3846    5.5406 C.ar    1  UNL1        0.0329
     30 C          58.6545   90.5725    5.6893 C.ar    1  UNL1        0.1592
     31 F          57.8886   89.7434    6.6772 F       1  UNL1       -0.2025
     32 C          57.9396   91.5897    4.8500 C.ar    1  UNL1        0.1285
     33 N          58.7053   92.4188    3.8620 N.ar    1  UNL1       -0.2369
@<TRIPOS>BOND
     1     9     8    1
     2     9     1    1
     3     1     2   ar
     4     2     3   ar
     5     3    23    1
     6    23    24   am
     7    24    25    2
     8    24    27    1
     9    27    28   ar
    10    28    29   ar
    11    29    30   ar
    12    30    31    1
    13    30    32   ar
    14    32    33   ar
    15     3     4   ar
    16     4     5   ar
    17     5     6   ar
    18     6     7    1
    19     9    10    1
    20    10    11    1
    21    11    12   ar
    22    12    21    1
    23    21    22    3
    24    12    13   ar
    25    13    14   ar
    26    14    15   ar
    27    15    16    1
    28    16    17    1
    29    16    18    2
    30    18     9    1
    31     6     1   ar
    32    15    11   ar
    33    33    27   ar
    34    23    26    1
    35    17    19    1
    36    17    20    1
@<TRIPOS>MOLECULE
*****
 33 36 0 0 0
SMALL
GASTEIGER

@<TRIPOS>ATOM
      1 C          62.1943   87.5308   11.4193 C.ar    1  UNL1        0.0522
      2 C          63.1851   88.5124   11.9713 C.ar    1  UNL1        0.0167
      3 C          62.9495   89.9853   11.8129 C.ar    1  UNL1        0.0505
      4 C          61.7231   90.4765   11.1025 C.ar    1  UNL1        0.0170
      5 C          60.7323   89.4948   10.5504 C.ar    1  UNL1        0.0307
      6 C          60.9680   88.0220   10.7089 C.ar    1  UNL1        0.1401
      7 F          59.9772   87.0403   10.1569 F       1  UNL1       -0.2044
      8 C          62.1092   86.4244   12.9965 C.3     1  UNL1        0.0601
      9 C          62.4299   86.0578   11.5776 C.3     1  UNL1        0.2163
     10 C          62.5541   84.7122   12.2289 C.3     1  UNL1        0.1614
     11 N          62.9171   83.5116   11.4062 N.ar    1  UNL1       -0.2929
     12 C          63.1108   82.0687   11.7675 C.ar    1  UNL1        0.1503
     13 C          63.4694   81.3220   10.5170 C.ar    1  UNL1        0.1285
     14 N          63.4973   82.3033    9.3829 N.ar    1  UNL1       -0.2180
     15 C          63.1560   83.6566    9.9325 C.ar    1  UNL1        0.2279
     16 C          63.0318   85.0022    9.2814 C.2     1  UNL1        0.3476
     17 N          63.2707   85.1472    7.8076 N.pl3   1  UNL1       -0.2439
     18 N          62.6687   86.2028   10.1040 N.2     1  UNL1       -0.0653
     19 H          63.5089   84.3592    7.2677 H       1  UNL1        0.2885
     20 H          63.1891   86.0303    7.3803 H       1  UNL1        0.2885
     21 C          62.9706   81.4766   13.1385 C.1     1  UNL1        0.1196
     22 N          62.8303   80.8845   14.5096 N.1     1  UNL1       -0.1893
     23 N          63.9403   90.9669   12.3649 N.am    1  UNL1       -0.2791
     24 C          64.7226   90.6292   13.5994 C.2     1  UNL1        0.2672
     25 O          64.5141   89.3099   14.2819 O.2     1  UNL1       -0.2682
     26 H          64.0771   91.8329   11.9170 H       1  UNL1        0.1552
     27 C          65.7134   91.6109   14.1514 C.ar    1  UNL1        0.1349
     28 C          66.6890   91.1792   15.2057 C.ar    1  UNL1        0.0261
     29 C          67.6798   92.1609   15.7578 C.ar    1  UNL1        0.0329
     30 C          67.6950   93.5742   15.2554 C.ar    1  UNL1        0.1592
     31 F          68.6858   94.5558   15.8074 F       1  UNL1       -0.2025
     32 C          66.7193   94.0057   14.2010 C.ar    1  UNL1        0.1285
     33 N          65.7285   93.0242   13.6489 N.ar    1  UNL1       -0.2369
@<TRIPOS>BOND
     1     9     8    1
     2     9     1    1
     3     1     2   ar
     4     2     3   ar
     5     3    23    1
     6    23    24   am
     7    24    25    2
     8    24    27    1
     9    27    28   ar
    10    28    29   ar
    11    29    30   ar
    12    30    31    1
    13    30    32   ar
    14    32    33   ar
    15     3     4   ar
    16     4     5   ar
    17     5     6   ar
    18     6     7    1
    19     9    10    1
    20    10    11    1
    21    11    12   ar
    22    12    21    1
    23    21    22    3
    24    12    13   ar
    25    13    14   ar
    26    14    15   ar
    27    15    16    1
    28    16    17    1
    29    16    18    2
    30    18     9    1
    31     6     1   ar
    32    15    11   ar
    33    33    27   ar
    34    23    26    1
    35    17    19    1
    36    17    20    1
