@<TRIPOS>MOLECULE
*****
 32 36 0 0 0
SMALL
GASTEIGER

@<TRIPOS>ATOM
      1 C          63.0479   86.3298   12.5267 C.2     1  UNL1        0.2684
      2 O          63.5888   87.2128   13.6119 O.2     1  UNL1       -0.2682
      3 N          62.2574   86.9252   11.3996 N.am    1  UNL1       -0.2710
      4 C          61.7165   86.0422   10.3143 C.3     1  UNL1        0.1258
      5 C          60.9259   86.6376    9.1872 C.3     1  UNL1        0.1637
      6 O          60.6762   88.1161    9.1453 O.3     1  UNL1       -0.3502
      7 C          61.2170   88.9991   10.2305 C.3     1  UNL1        0.1622
      8 C          62.0076   88.4037   11.3576 C.3     1  UNL1        0.1096
      9 C          64.0199   81.8587   10.0641 C.3     1  UNL1        0.0521
     10 C          63.7837   82.6157   11.3373 C.ar    1  UNL1        0.0596
     11 C          63.7972   81.8944   12.6523 C.ar    1  UNL1        0.0164
     12 C          63.5610   82.6515   13.9255 C.ar    1  UNL1        0.0238
     13 C          63.3112   84.1299   13.8836 C.ar    1  UNL1        0.1249
     14 C          63.2977   84.8513   12.5686 C.ar    1  UNL1        0.1535
     15 N          63.5340   84.0942   11.2954 N.ar    1  UNL1       -0.2435
     16 N          63.0750   84.8870   15.1568 N.ar    1  UNL1       -0.1462
     17 N          61.7497   85.0888   15.8297 N.ar    1  UNL1       -0.1446
     18 C          61.9782   85.9017   17.0694 C.ar    1  UNL1        0.1446
     19 C          63.4448   86.2024   17.1628 C.ar    1  UNL1        0.1446
     20 N          64.1226   85.5752   15.9807 N.ar    1  UNL1       -0.1446
     21 C          62.5484   89.2867   12.4429 C.3     1  UNL1        0.0488
     22 C          63.5106   90.3867   12.1050 C.ar    1  UNL1       -0.0189
     23 C          63.4566   91.0426   10.7570 C.ar    1  UNL1       -0.0041
     24 C          64.4187   92.1426   10.4191 C.ar    1  UNL1        0.0013
     25 C          65.4349   92.5868   11.4291 C.ar    1  UNL1        0.0209
     26 C          65.4889   91.9309   12.7771 C.ar    1  UNL1        0.1026
     27 C          64.5267   90.8309   13.1150 C.ar    1  UNL1        0.0167
     28 N          66.5050   92.3751   13.7871 N.ar    1  UNL1       -0.1478
     29 N          67.9869   92.1595   13.7004 N.ar    1  UNL1       -0.1447
     30 C          68.6155   92.7640   14.9209 C.ar    1  UNL1        0.1446
     31 C          67.5221   93.3533   15.7618 C.ar    1  UNL1        0.1446
     32 N          66.2177   93.1130   15.0611 N.ar    1  UNL1       -0.1447
@<TRIPOS>BOND
     1     9    10    1
     2    10    11   ar
     3    11    12   ar
     4    12    13   ar
     5    13    16    1
     6    16    17   ar
     7    17    18   ar
     8    18    19   ar
     9    19    20   ar
    10    13    14   ar
    11    14     1    1
    12     1     2    2
    13     1     3   am
    14     3     4    1
    15     4     5    1
    16     5     6    1
    17     6     7    1
    18     7     8    1
    19     8    21    1
    20    21    22    1
    21    22    23   ar
    22    23    24   ar
    23    24    25   ar
    24    25    26   ar
    25    26    28    1
    26    28    29   ar
    27    29    30   ar
    28    30    31   ar
    29    31    32   ar
    30    26    27   ar
    31    14    15   ar
    32    15    10   ar
    33    20    16   ar
    34     8     3    1
    35    27    22   ar
    36    32    28   ar
@<TRIPOS>MOLECULE
*****
 32 36 0 0 0
SMALL
GASTEIGER

@<TRIPOS>ATOM
      1 C          62.6584   88.5315   11.5670 C.2     1  UNL1        0.2684
      2 O          62.6336   90.0311   11.5428 O.2     1  UNL1       -0.2682
      3 N          63.3181   87.8106   12.7050 N.am    1  UNL1       -0.2710
      4 C          63.3429   86.3110   12.7293 C.3     1  UNL1        0.1258
      5 C          64.0026   85.5901   13.8674 C.3     1  UNL1        0.1637
      6 O          64.6374   86.3688   14.9812 O.3     1  UNL1       -0.3502
      7 C          64.6126   87.8684   14.9569 C.3     1  UNL1        0.1622
      8 C          63.9529   88.5893   13.8189 C.3     1  UNL1        0.1096
      9 C          63.0084   84.9795    7.7906 C.3     1  UNL1        0.0521
     10 C          62.1986   85.9768    8.5650 C.ar    1  UNL1        0.0596
     11 C          60.7540   86.1954    8.2255 C.ar    1  UNL1        0.0164
     12 C          59.9442   87.1927    8.9998 C.ar    1  UNL1        0.0238
     13 C          60.5790   87.9714   10.1137 C.ar    1  UNL1        0.1249
     14 C          62.0236   87.7528   10.4531 C.ar    1  UNL1        0.1535
     15 N          62.8334   86.7555    9.6788 N.ar    1  UNL1       -0.2435
     16 N          59.7691   88.9687   10.8880 N.ar    1  UNL1       -0.1462
     17 N          59.5683   90.4111   10.5283 N.ar    1  UNL1       -0.1446
     18 C          58.6930   91.0326   11.5760 C.ar    1  UNL1        0.1446
     19 C          58.3529   89.9743   12.5832 C.ar    1  UNL1        0.1446
     20 N          59.0179   88.6988   12.1580 N.ar    1  UNL1       -0.1446
     21 C          63.9281   90.0889   13.7947 C.3     1  UNL1        0.0488
     22 C          65.2137   90.8595   13.7357 C.ar    1  UNL1       -0.0189
     23 C          66.1546   90.8390   14.9037 C.ar    1  UNL1       -0.0041
     24 C          67.4402   91.6096   14.8447 C.ar    1  UNL1        0.0013
     25 C          67.7849   92.4006   13.6177 C.ar    1  UNL1        0.0209
     26 C          66.8439   92.4210   12.4496 C.ar    1  UNL1        0.1026
     27 C          65.5583   91.6504   12.5087 C.ar    1  UNL1        0.0167
     28 N          67.1886   93.2119   11.2226 N.ar    1  UNL1       -0.1478
     29 N          66.8450   94.6511   10.9760 N.ar    1  UNL1       -0.1447
     30 C          67.3815   95.0312    9.6277 C.ar    1  UNL1        0.1446
     31 C          68.0566   93.8270    9.0411 C.ar    1  UNL1        0.1446
     32 N          67.9374   92.7026   10.0268 N.ar    1  UNL1       -0.1447
@<TRIPOS>BOND
     1     9    10    1
     2    10    11   ar
     3    11    12   ar
     4    12    13   ar
     5    13    16    1
     6    16    17   ar
     7    17    18   ar
     8    18    19   ar
     9    19    20   ar
    10    13    14   ar
    11    14     1    1
    12     1     2    2
    13     1     3   am
    14     3     4    1
    15     4     5    1
    16     5     6    1
    17     6     7    1
    18     7     8    1
    19     8    21    1
    20    21    22    1
    21    22    23   ar
    22    23    24   ar
    23    24    25   ar
    24    25    26   ar
    25    26    28    1
    26    28    29   ar
    27    29    30   ar
    28    30    31   ar
    29    31    32   ar
    30    26    27   ar
    31    14    15   ar
    32    15    10   ar
    33    20    16   ar
    34     8     3    1
    35    27    22   ar
    36    32    28   ar
@<TRIPOS>MOLECULE
*****
 32 36 0 0 0
SMALL
GASTEIGER

@<TRIPOS>ATOM
      1 C          63.3539   87.0012   13.1139 C.2     1  UNL1        0.2684
      2 O          63.8321   87.6475   14.3803 O.2     1  UNL1       -0.2682
      3 N          62.8155   87.8461   11.9976 N.am    1  UNL1       -0.2710
      4 C          62.3374   87.1998   10.7313 C.3     1  UNL1        0.1258
      5 C          61.7989   88.0449    9.6150 C.3     1  UNL1        0.1637
      6 O          61.7387   89.5361    9.7650 O.3     1  UNL1       -0.3502
      7 C          62.2169   90.1824   11.0314 C.3     1  UNL1        0.1622
      8 C          62.7553   89.3375   12.1477 C.3     1  UNL1        0.1096
      9 C          63.9899   82.8017   10.1207 C.3     1  UNL1        0.0521
     10 C          63.7322   83.4102   11.4673 C.ar    1  UNL1        0.0596
     11 C          63.5347   82.5274   12.6638 C.ar    1  UNL1        0.0164
     12 C          63.2770   83.1359   14.0104 C.ar    1  UNL1        0.0238
     13 C          63.2167   84.6272   14.1605 C.ar    1  UNL1        0.1249
     14 C          63.4142   85.5099   12.9639 C.ar    1  UNL1        0.1535
     15 N          63.6719   84.9014   11.6173 N.ar    1  UNL1       -0.2435
     16 N          62.9590   85.2357   15.5070 N.ar    1  UNL1       -0.1462
     17 N          64.0014   85.7358   16.4627 N.ar    1  UNL1       -0.1446
     18 C          63.3002   86.2601   17.6807 C.ar    1  UNL1        0.1446
     19 C          61.8245   86.0840   17.4778 C.ar    1  UNL1        0.1446
     20 N          61.6136   85.4509   16.1344 N.ar    1  UNL1       -0.1446
     21 C          63.2335   89.9838   13.4140 C.3     1  UNL1        0.0488
     22 C          64.5096   90.7720   13.4182 C.ar    1  UNL1       -0.0189
     23 C          65.4701   90.6380   14.5625 C.ar    1  UNL1       -0.0041
     24 C          66.7464   91.4262   14.5668 C.ar    1  UNL1        0.0013
     25 C          67.0620   92.3484   13.4267 C.ar    1  UNL1        0.0209
     26 C          66.1015   92.4824   12.2823 C.ar    1  UNL1        0.1026
     27 C          64.8253   91.6942   12.2781 C.ar    1  UNL1        0.0167
     28 N          66.4172   93.4047   11.1423 N.ar    1  UNL1       -0.1478
     29 N          67.4963   93.2052   10.1197 N.ar    1  UNL1       -0.1447
     30 C          67.4553   94.3656    9.1700 C.ar    1  UNL1        0.1446
     31 C          66.3507   95.2822    9.6056 C.ar    1  UNL1        0.1446
     32 N          65.7091   94.6884   10.8245 N.ar    1  UNL1       -0.1447
@<TRIPOS>BOND
     1     9    10    1
     2    10    11   ar
     3    11    12   ar
     4    12    13   ar
     5    13    16    1
     6    16    17   ar
     7    17    18   ar
     8    18    19   ar
     9    19    20   ar
    10    13    14   ar
    11    14     1    1
    12     1     2    2
    13     1     3   am
    14     3     4    1
    15     4     5    1
    16     5     6    1
    17     6     7    1
    18     7     8    1
    19     8    21    1
    20    21    22    1
    21    22    23   ar
    22    23    24   ar
    23    24    25   ar
    24    25    26   ar
    25    26    28    1
    26    28    29   ar
    27    29    30   ar
    28    30    31   ar
    29    31    32   ar
    30    26    27   ar
    31    14    15   ar
    32    15    10   ar
    33    20    16   ar
    34     8     3    1
    35    27    22   ar
    36    32    28   ar
@<TRIPOS>MOLECULE
*****
 32 36 0 0 0
SMALL
GASTEIGER

@<TRIPOS>ATOM
      1 C          63.3967   87.9651   13.2177 C.2     1  UNL1        0.2684
      2 O          63.6143   89.0703   12.2272 O.2     1  UNL1       -0.2682
      3 N          63.3406   88.2730   14.6847 N.am    1  UNL1       -0.2710
      4 C          63.1230   87.1678   15.6752 C.3     1  UNL1        0.1258
      5 C          63.0670   87.4758   17.1423 C.3     1  UNL1        0.1637
      6 O          63.2285   88.8889   17.6187 O.3     1  UNL1       -0.3502
      7 C          63.4461   89.9941   16.6281 C.3     1  UNL1        0.1622
      8 C          63.5022   89.6862   15.1612 C.3     1  UNL1        0.1096
      9 C          64.5741   82.9197   13.6155 C.3     1  UNL1        0.0521
     10 C          63.8239   84.0293   12.9402 C.ar    1  UNL1        0.0596
     11 C          62.9121   83.7257   11.7884 C.ar    1  UNL1        0.0164
     12 C          62.1619   84.8353   11.1131 C.ar    1  UNL1        0.0238
     13 C          62.3234   86.2484   11.5896 C.ar    1  UNL1        0.1249
     14 C          63.2351   86.5519   12.7413 C.ar    1  UNL1        0.1535
     15 N          63.9854   85.4424   13.4166 N.ar    1  UNL1       -0.2435
     16 N          61.5731   87.3579   10.9142 N.ar    1  UNL1       -0.1462
     17 N          61.8767   87.9323    9.5622 N.ar    1  UNL1       -0.1446
     18 C          60.8788   89.0173    9.2848 C.ar    1  UNL1        0.1446
     19 C          59.9584   89.1134   10.4653 C.ar    1  UNL1        0.1446
     20 N          60.3876   88.0879   11.4724 N.ar    1  UNL1       -0.1446
     21 C          63.7198   90.7913   14.1706 C.3     1  UNL1        0.0488
     22 C          65.0996   91.3342   13.9436 C.ar    1  UNL1       -0.0189
     23 C          66.1716   91.1101   14.9685 C.ar    1  UNL1       -0.0041
     24 C          67.5515   91.6529   14.7416 C.ar    1  UNL1        0.0013
     25 C          67.8592   92.4198   13.4897 C.ar    1  UNL1        0.0209
     26 C          66.7870   92.6439   12.4648 C.ar    1  UNL1        0.1026
     27 C          65.4073   92.1011   12.6918 C.ar    1  UNL1        0.0167
     28 N          67.0947   93.4108   11.2129 N.ar    1  UNL1       -0.1478
     29 N          66.7619   94.8508   10.9568 N.ar    1  UNL1       -0.1447
     30 C          67.2508   95.2024    9.5830 C.ar    1  UNL1        0.1446
     31 C          67.8858   93.9796    8.9900 C.ar    1  UNL1        0.1446
     32 N          67.7894   92.8723    9.9973 N.ar    1  UNL1       -0.1447
@<TRIPOS>BOND
     1     9    10    1
     2    10    11   ar
     3    11    12   ar
     4    12    13   ar
     5    13    16    1
     6    16    17   ar
     7    17    18   ar
     8    18    19   ar
     9    19    20   ar
    10    13    14   ar
    11    14     1    1
    12     1     2    2
    13     1     3   am
    14     3     4    1
    15     4     5    1
    16     5     6    1
    17     6     7    1
    18     7     8    1
    19     8    21    1
    20    21    22    1
    21    22    23   ar
    22    23    24   ar
    23    24    25   ar
    24    25    26   ar
    25    26    28    1
    26    28    29   ar
    27    29    30   ar
    28    30    31   ar
    29    31    32   ar
    30    26    27   ar
    31    14    15   ar
    32    15    10   ar
    33    20    16   ar
    34     8     3    1
    35    27    22   ar
    36    32    28   ar
@<TRIPOS>MOLECULE
*****
 32 36 0 0 0
SMALL
GASTEIGER

@<TRIPOS>ATOM
      1 C          62.6428   88.1787   10.9856 C.2     1  UNL1        0.2684
      2 O          63.0210   89.6210   10.8227 O.2     1  UNL1       -0.2682
      3 N          63.0787   87.4222   12.2053 N.am    1  UNL1       -0.2710
      4 C          62.7005   85.9798   12.3682 C.3     1  UNL1        0.1258
      5 C          63.1365   85.2233   13.5879 C.3     1  UNL1        0.1637
      6 O          63.9506   85.9092   14.6447 O.3     1  UNL1       -0.3502
      7 C          64.3287   87.3515   14.4818 C.3     1  UNL1        0.1622
      8 C          63.8928   88.1080   13.2621 C.3     1  UNL1        0.1096
      9 C          62.3011   84.7921    7.0595 C.3     1  UNL1        0.0521
     10 C          61.6579   85.7995    7.9657 C.ar    1  UNL1        0.0596
     11 C          60.2005   86.1211    7.8152 C.ar    1  UNL1        0.0164
     12 C          59.5573   87.1285    8.7214 C.ar    1  UNL1        0.0238
     13 C          60.3713   87.8144    9.7782 C.ar    1  UNL1        0.1249
     14 C          61.8286   87.4928    9.9288 C.ar    1  UNL1        0.1535
     15 N          62.4719   86.4854    9.0225 N.ar    1  UNL1       -0.2435
     16 N          59.7280   88.8218   10.6844 N.ar    1  UNL1       -0.1462
     17 N          59.1030   88.5362   12.0177 N.ar    1  UNL1       -0.1446
     18 C          58.5855   89.8296   12.5738 C.ar    1  UNL1        0.1446
     19 C          58.8907   90.9147   11.5842 C.ar    1  UNL1        0.1446
     20 N          59.5969   90.2919   10.4165 N.ar    1  UNL1       -0.1446
     21 C          64.2710   89.5504   13.0992 C.3     1  UNL1        0.0488
     22 C          64.5226   90.4010   14.3088 C.ar    1  UNL1       -0.0189
     23 C          63.4629   90.5402   15.3612 C.ar    1  UNL1       -0.0041
     24 C          63.7144   91.3909   16.5709 C.ar    1  UNL1        0.0013
     25 C          65.0256   92.1023   16.7280 C.ar    1  UNL1        0.0209
     26 C          66.0853   91.9631   15.6755 C.ar    1  UNL1        0.1026
     27 C          65.8337   91.1125   14.4659 C.ar    1  UNL1        0.0167
     28 N          67.3964   92.6745   15.8326 N.ar    1  UNL1       -0.1478
     29 N          68.7000   92.0445   16.2249 N.ar    1  UNL1       -0.1447
     30 C          69.7435   93.1214   16.2597 C.ar    1  UNL1        0.1446
     31 C          69.0849   94.4171   15.8890 C.ar    1  UNL1        0.1446
     32 N          67.6343   94.1410   15.6250 N.ar    1  UNL1       -0.1447
@<TRIPOS>BOND
     1     9    10    1
     2    10    11   ar
     3    11    12   ar
     4    12    13   ar
     5    13    16    1
     6    16    17   ar
     7    17    18   ar
     8    18    19   ar
     9    19    20   ar
    10    13    14   ar
    11    14     1    1
    12     1     2    2
    13     1     3   am
    14     3     4    1
    15     4     5    1
    16     5     6    1
    17     6     7    1
    18     7     8    1
    19     8    21    1
    20    21    22    1
    21    22    23   ar
    22    23    24   ar
    23    24    25   ar
    24    25    26   ar
    25    26    28    1
    26    28    29   ar
    27    29    30   ar
    28    30    31   ar
    29    31    32   ar
    30    26    27   ar
    31    14    15   ar
    32    15    10   ar
    33    20    16   ar
    34     8     3    1
    35    27    22   ar
    36    32    28   ar
@<TRIPOS>MOLECULE
*****
 32 36 0 0 0
SMALL
GASTEIGER

@<TRIPOS>ATOM
      1 C          62.8497   88.9743   11.9749 C.2     1  UNL1        0.2684
      2 O          62.9220   87.7225   12.7982 O.2     1  UNL1       -0.2682
      3 N          61.8854   89.0641   10.8296 N.am    1  UNL1       -0.2710
      4 C          61.8131   90.3159   10.0063 C.3     1  UNL1        0.1258
      5 C          60.8487   90.4056    8.8609 C.3     1  UNL1        0.1637
      6 O          59.9566   89.2436    8.5387 O.3     1  UNL1       -0.3502
      7 C          60.0289   87.9918    9.3620 C.3     1  UNL1        0.1622
      8 C          60.9932   87.9020   10.5074 C.3     1  UNL1        0.1096
      9 C          65.4176   93.2309   10.4626 C.3     1  UNL1        0.0521
     10 C          65.0257   92.2647   11.5410 C.ar    1  UNL1        0.0596
     11 C          65.5260   92.4605   12.9414 C.ar    1  UNL1        0.0164
     12 C          65.1341   91.4942   14.0198 C.ar    1  UNL1        0.0238
     13 C          64.2421   90.3322   13.6976 C.ar    1  UNL1        0.1249
     14 C          63.7418   90.1364   12.2971 C.ar    1  UNL1        0.1535
     15 N          64.1337   91.1026   11.2188 N.ar    1  UNL1       -0.2435
     16 N          63.8502   89.3659   14.7760 N.ar    1  UNL1       -0.1462
     17 N          64.3569   87.9624   14.9289 N.ar    1  UNL1       -0.1446
     18 C          63.7027   87.3625   16.1381 C.ar    1  UNL1        0.1446
     19 C          62.7918   88.3954   16.7326 C.ar    1  UNL1        0.1446
     20 N          62.8829   89.6335   15.8907 N.ar    1  UNL1       -0.1446
     21 C          61.0655   86.6502   11.3306 C.3     1  UNL1        0.0488
     22 C          61.9511   85.5190   10.8993 C.ar    1  UNL1       -0.0189
     23 C          62.6485   85.5764    9.5725 C.ar    1  UNL1       -0.0041
     24 C          63.5342   84.4451    9.1411 C.ar    1  UNL1        0.0013
     25 C          63.7223   83.2565   10.0366 C.ar    1  UNL1        0.0209
     26 C          63.0249   83.1991   11.3634 C.ar    1  UNL1        0.1026
     27 C          62.1393   84.3303   11.7947 C.ar    1  UNL1        0.0167
     28 N          63.2131   82.0105   12.2588 N.ar    1  UNL1       -0.1478
     29 N          64.2407   81.8776   13.3433 N.ar    1  UNL1       -0.1447
     30 C          64.0694   80.5310   13.9817 C.ar    1  UNL1        0.1446
     31 C          62.9359   79.8318   13.2917 C.ar    1  UNL1        0.1446
     32 N          62.4066   80.7461   12.2268 N.ar    1  UNL1       -0.1447
@<TRIPOS>BOND
     1     9    10    1
     2    10    11   ar
     3    11    12   ar
     4    12    13   ar
     5    13    16    1
     6    16    17   ar
     7    17    18   ar
     8    18    19   ar
     9    19    20   ar
    10    13    14   ar
    11    14     1    1
    12     1     2    2
    13     1     3   am
    14     3     4    1
    15     4     5    1
    16     5     6    1
    17     6     7    1
    18     7     8    1
    19     8    21    1
    20    21    22    1
    21    22    23   ar
    22    23    24   ar
    23    24    25   ar
    24    25    26   ar
    25    26    28    1
    26    28    29   ar
    27    29    30   ar
    28    30    31   ar
    29    31    32   ar
    30    26    27   ar
    31    14    15   ar
    32    15    10   ar
    33    20    16   ar
    34     8     3    1
    35    27    22   ar
    36    32    28   ar
