@<TRIPOS>MOLECULE
*****
 45 49 0 0 0
SMALL
GASTEIGER

@<TRIPOS>ATOM
      1 C          59.3774   89.0693   12.1112 C.3     1  UNL1        0.0312
      2 C          59.9502   88.6823   10.7800 C.2     1  UNL1        0.0136
      3 C          59.5819   89.4589    9.5507 C.2     1  UNL1        0.0107
      4 C          60.1547   89.0720    8.2195 C.2     1  UNL1        0.0509
      5 C          61.0959   87.9084    8.1176 C.2     1  UNL1        0.0613
      6 C          61.4642   87.1318    9.3469 C.2     1  UNL1        0.2246
      7 N          62.3603   85.9469    9.5546 N.2     1  UNL1       -0.0378
      8 C          62.3412   85.6016   11.0141 C.2     1  UNL1        0.3605
      9 N          61.4334   86.5730   11.7086 N.2     1  UNL1       -0.0547
     10 C          60.8914   87.5188   10.6781 C.3     1  UNL1        0.2976
     11 C          63.0972   84.4815   11.6651 C.3     1  UNL1        0.2246
     12 C          63.5128   84.5927   13.1021 C.2     1  UNL1        0.0436
     13 C          64.2688   83.4724   13.7529 C.2     1  UNL1        0.0288
     14 C          64.6093   82.2411   12.9669 C.2     1  UNL1        0.0896
     15 N          64.1937   82.1299   11.5299 N.am    1  UNL1       -0.1770
     16 C          63.4377   83.2501   10.8790 C.2     1  UNL1        0.2627
     17 O          63.0221   83.1389    9.4421 O.2     1  UNL1       -0.2719
     18 N          63.1724   85.8239   13.8882 N.pl3   1  UNL1       -0.3329
     19 H          62.2304   86.0574   14.0539 H       1  UNL1        0.1466
     20 C          64.2671   86.6996   14.4219 C.3     1  UNL1        0.1211
     21 C          63.9448   88.0674   14.9464 C.3     1  UNL1        0.1522
     22 O          63.4340   88.2325   16.3470 O.3     1  UNL1       -0.3783
     23 H          63.3710   87.3632   16.7727 H       1  UNL1        0.2109
     24 C          64.1334   89.2702   14.0702 C.ar    1  UNL1        0.0067
     25 C          65.0668   90.3663   14.4916 C.ar    1  UNL1       -0.0018
     26 C          65.2554   91.5691   13.6154 C.ar    1  UNL1        0.0006
     27 C          64.5106   91.6759   12.3178 C.ar    1  UNL1        0.0114
     28 C          63.5773   90.5799   11.8963 C.ar    1  UNL1        0.0574
     29 CL         62.8325   90.6867   10.5987 Cl      1  UNL1       -0.0823
     30 C          63.3887   89.3771   12.7725 C.ar    1  UNL1        0.0095
     31 N          59.7864   89.8486    6.9902 N.pl3   1  UNL1       -0.3073
     32 C          60.8615   90.4070    6.1056 C.3     1  UNL1        0.0925
     33 C          60.4932   91.1836    4.8763 C.3     1  UNL1        0.0411
     34 C          59.0498   91.4018    4.5315 C.3     1  UNL1        0.0782
     35 C          57.9747   90.8435    5.4161 C.3     1  UNL1        0.0411
     36 C          58.3430   90.0669    6.6454 C.3     1  UNL1        0.0925
     37 N          58.6814   92.1784    3.3022 N.am    1  UNL1       -0.2722
     38 C          59.7524   92.8250    2.4746 C.2     1  UNL1        0.4014
     39 O          61.1917   92.6949    2.8763 O.2     1  UNL1       -0.2264
     40 H          57.7367   92.2637    3.0386 H       1  UNL1        0.1527
     41 O          59.3841   93.6016    1.2453 O.3     1  UNL1       -0.4419
     42 C          60.2394   93.5105    0.0163 C.3     1  UNL1        0.1378
     43 C          59.8017   92.0896   -0.1828 C.3     1  UNL1        0.0437
     44 C          60.6770   94.9313    0.2155 C.3     1  UNL1        0.0437
     45 C          61.0945   93.4193   -1.2125 C.3     1  UNL1        0.0437
@<TRIPOS>BOND
     1     1     2    1
     2     2     3    2
     3     3     4    1
     4     4    31    1
     5    31    32    1
     6    32    33    1
     7    33    34    1
     8    34    37    1
     9    37    38   am
    10    38    39    2
    11    38    41    1
    12    41    42    1
    13    42    43    1
    14    42    44    1
    15    42    45    1
    16    34    35    1
    17    35    36    1
    18     4     5    2
    19     5     6    1
    20     6     7    2
    21     7     8    1
    22     8    11    1
    23    11    12    1
    24    12    18    1
    25    18    20    1
    26    20    21    1
    27    21    22    1
    28    21    24    1
    29    24    25   ar
    30    25    26   ar
    31    26    27   ar
    32    27    28   ar
    33    28    29    1
    34    28    30   ar
    35    12    13    2
    36    13    14    1
    37    14    15    2
    38    15    16    1
    39    16    17    2
    40     8     9    2
    41     9    10    1
    42    10     2    1
    43    36    31    1
    44    10     6    1
    45    16    11    1
    46    30    24   ar
    47    37    40    1
    48    18    19    1
    49    22    23    1
@<TRIPOS>MOLECULE
*****
 45 49 0 0 0
SMALL
GASTEIGER

@<TRIPOS>ATOM
      1 C          58.8789   86.4243    8.4537 C.3     1  UNL1        0.0312
      2 C          59.6289   87.7092    8.2619 C.2     1  UNL1        0.0136
      3 C          59.3544   88.5657    7.0615 C.2     1  UNL1        0.0107
      4 C          60.1043   89.8505    6.8697 C.2     1  UNL1        0.0509
      5 C          61.1288   90.2788    7.8782 C.2     1  UNL1        0.0613
      6 C          61.4033   89.4222    9.0786 C.2     1  UNL1        0.2246
      7 N          62.3483   89.5841   10.2322 N.2     1  UNL1       -0.0378
      8 C          62.1823   88.3993   11.1370 C.2     1  UNL1        0.3605
      9 N          61.1348   87.5052   10.5426 N.2     1  UNL1       -0.0547
     10 C          60.6533   88.1374    9.2704 C.3     1  UNL1        0.2976
     11 C          62.9322   88.1520   12.4123 C.3     1  UNL1        0.2246
     12 C          63.4423   89.3092   13.2190 C.2     1  UNL1        0.0436
     13 C          64.1922   89.0618   14.4943 C.2     1  UNL1        0.0288
     14 C          64.4320   87.6572   14.9630 C.2     1  UNL1        0.0896
     15 N          63.9220   86.5000   14.1564 N.am    1  UNL1       -0.1770
     16 C          63.1721   86.7474   12.8810 C.2     1  UNL1        0.2627
     17 O          62.6620   85.5902   12.0744 O.2     1  UNL1       -0.2719
     18 N          63.2024   90.7137   12.7504 N.pl3   1  UNL1       -0.3329
     19 H          62.4139   91.2106   13.0675 H       1  UNL1        0.1466
     20 C          64.1640   91.3614   11.7985 C.3     1  UNL1        0.1211
     21 C          65.1777   92.3425   12.3082 C.3     1  UNL1        0.1522
     22 O          65.3100   92.5867   13.7823 O.3     1  UNL1       -0.3783
     23 H          64.6714   92.0345   14.2601 H       1  UNL1        0.2109
     24 C          66.0591   93.0794   11.3438 C.ar    1  UNL1        0.0067
     25 C          65.9902   94.5753   11.2573 C.ar    1  UNL1       -0.0018
     26 C          66.8716   95.3122   10.2930 C.ar    1  UNL1        0.0006
     27 C          67.8219   94.5532    9.4150 C.ar    1  UNL1        0.0114
     28 C          67.8908   93.0574    9.5014 C.ar    1  UNL1        0.0574
     29 CL         68.8411   92.2984    8.6234 Cl      1  UNL1       -0.0823
     30 C          67.0094   92.3204   10.4658 C.ar    1  UNL1        0.0095
     31 N          59.8299   90.7071    5.6692 N.pl3   1  UNL1       -0.3073
     32 C          58.4215   91.1003    5.3346 C.3     1  UNL1        0.0925
     33 C          58.1470   91.9568    4.1342 C.3     1  UNL1        0.0411
     34 C          59.2809   92.4202    3.2684 C.3     1  UNL1        0.0782
     35 C          60.6893   92.0271    3.6031 C.3     1  UNL1        0.0411
     36 C          60.9637   91.1705    4.8034 C.3     1  UNL1        0.0925
     37 N          59.0065   93.2768    2.0681 N.am    1  UNL1       -0.2722
     38 C          59.6821   92.9773    0.7627 C.2     1  UNL1        0.4014
     39 O          60.6320   91.8211    0.6578 O.2     1  UNL1       -0.2264
     40 H          58.3830   94.0356    2.1369 H       1  UNL1        0.1527
     41 O          59.4078   93.8338   -0.4378 O.3     1  UNL1       -0.4419
     42 C          58.8751   93.2138   -1.6955 C.3     1  UNL1        0.1378
     43 C          57.5802   92.9150   -0.9998 C.3     1  UNL1        0.0437
     44 C          60.1700   93.5127   -2.3912 C.3     1  UNL1        0.0437
     45 C          58.3425   92.5939   -2.9532 C.3     1  UNL1        0.0437
@<TRIPOS>BOND
     1     1     2    1
     2     2     3    2
     3     3     4    1
     4     4    31    1
     5    31    32    1
     6    32    33    1
     7    33    34    1
     8    34    37    1
     9    37    38   am
    10    38    39    2
    11    38    41    1
    12    41    42    1
    13    42    43    1
    14    42    44    1
    15    42    45    1
    16    34    35    1
    17    35    36    1
    18     4     5    2
    19     5     6    1
    20     6     7    2
    21     7     8    1
    22     8    11    1
    23    11    12    1
    24    12    18    1
    25    18    20    1
    26    20    21    1
    27    21    22    1
    28    21    24    1
    29    24    25   ar
    30    25    26   ar
    31    26    27   ar
    32    27    28   ar
    33    28    29    1
    34    28    30   ar
    35    12    13    2
    36    13    14    1
    37    14    15    2
    38    15    16    1
    39    16    17    2
    40     8     9    2
    41     9    10    1
    42    10     2    1
    43    36    31    1
    44    10     6    1
    45    16    11    1
    46    30    24   ar
    47    37    40    1
    48    18    19    1
    49    22    23    1
@<TRIPOS>MOLECULE
*****
 45 49 0 0 0
SMALL
GASTEIGER

@<TRIPOS>ATOM
      1 C          58.3594   86.0897    8.2123 C.3     1  UNL1        0.0312
      2 C          59.2915   87.2611    8.1172 C.2     1  UNL1        0.0136
      3 C          59.1150   88.2733    7.0244 C.2     1  UNL1        0.0107
      4 C          60.0471   89.4446    6.9293 C.2     1  UNL1        0.0509
      5 C          61.1559   89.6038    7.9270 C.2     1  UNL1        0.0613
      6 C          61.3324   88.5915    9.0198 C.2     1  UNL1        0.2246
      7 N          62.3263   88.4851   10.1382 N.2     1  UNL1       -0.0378
      8 C          62.0083   87.2479   10.9246 C.2     1  UNL1        0.3605
      9 N          60.8180   86.5898   10.2921 N.2     1  UNL1       -0.0547
     10 C          60.4003   87.4202    9.1149 C.3     1  UNL1        0.2976
     11 C          62.7504   86.7553   12.1315 C.3     1  UNL1        0.2246
     12 C          63.4152   87.7335   13.0541 C.2     1  UNL1        0.0436
     13 C          64.1573   87.2408   14.2610 C.2     1  UNL1        0.0288
     14 C          64.2345   85.7701   14.5454 C.2     1  UNL1        0.0896
     15 N          63.5697   84.7919   13.6228 N.am    1  UNL1       -0.1770
     16 C          62.8276   85.2846   12.4159 C.2     1  UNL1        0.2627
     17 O          62.1628   84.3064   11.4933 O.2     1  UNL1       -0.2719
     18 N          63.3381   89.2043   12.7698 N.pl3   1  UNL1       -0.3329
     19 H          63.5823   89.5470   11.8798 H       1  UNL1        0.1466
     20 C          62.8888   90.1528   13.8414 C.3     1  UNL1        0.1211
     21 C          63.8855   91.0467   14.5178 C.3     1  UNL1        0.1522
     22 O          63.6613   91.4823   15.9356 O.3     1  UNL1       -0.3783
     23 H          62.8324   91.1003   16.2640 H       1  UNL1        0.2109
     24 C          65.1063   91.5049   13.7765 C.ar    1  UNL1        0.0067
     25 C          66.4608   91.3719   14.4072 C.ar    1  UNL1       -0.0018
     26 C          67.6816   91.8301   13.6659 C.ar    1  UNL1        0.0006
     27 C          67.5481   92.4213   12.2938 C.ar    1  UNL1        0.0114
     28 C          66.1937   92.5543   11.6631 C.ar    1  UNL1        0.0574
     29 CL         66.0601   93.1455   10.2910 Cl      1  UNL1       -0.0823
     30 C          64.9728   92.0961   12.4044 C.ar    1  UNL1        0.0095
     31 N          59.8705   90.4569    5.8365 N.pl3   1  UNL1       -0.3073
     32 C          61.0604   90.9374    5.0598 C.3     1  UNL1        0.0925
     33 C          60.8838   91.9497    3.9671 C.3     1  UNL1        0.0411
     34 C          59.5173   92.4814    3.6509 C.3     1  UNL1        0.0782
     35 C          58.3274   92.0008    4.4275 C.3     1  UNL1        0.0411
     36 C          58.5040   90.9886    5.5203 C.3     1  UNL1        0.0925
     37 N          59.3407   93.4936    2.5582 N.am    1  UNL1       -0.2722
     38 C          59.7485   93.1600    1.1537 C.2     1  UNL1        0.4014
     39 O          60.3330   91.8142    0.8421 O.2     1  UNL1       -0.2264
     40 H          58.9570   94.3769    2.7627 H       1  UNL1        0.1527
     41 O          59.5719   94.1722    0.0609 O.3     1  UNL1       -0.4419
     42 C          59.2321   93.7233   -1.3294 C.3     1  UNL1        0.1378
     43 C          60.6405   94.0022   -1.7637 C.3     1  UNL1        0.0437
     44 C          57.8237   93.4443   -0.8951 C.3     1  UNL1        0.0437
     45 C          58.8923   93.2744   -2.7197 C.3     1  UNL1        0.0437
@<TRIPOS>BOND
     1     1     2    1
     2     2     3    2
     3     3     4    1
     4     4    31    1
     5    31    32    1
     6    32    33    1
     7    33    34    1
     8    34    37    1
     9    37    38   am
    10    38    39    2
    11    38    41    1
    12    41    42    1
    13    42    43    1
    14    42    44    1
    15    42    45    1
    16    34    35    1
    17    35    36    1
    18     4     5    2
    19     5     6    1
    20     6     7    2
    21     7     8    1
    22     8    11    1
    23    11    12    1
    24    12    18    1
    25    18    20    1
    26    20    21    1
    27    21    22    1
    28    21    24    1
    29    24    25   ar
    30    25    26   ar
    31    26    27   ar
    32    27    28   ar
    33    28    29    1
    34    28    30   ar
    35    12    13    2
    36    13    14    1
    37    14    15    2
    38    15    16    1
    39    16    17    2
    40     8     9    2
    41     9    10    1
    42    10     2    1
    43    36    31    1
    44    10     6    1
    45    16    11    1
    46    30    24   ar
    47    37    40    1
    48    18    19    1
    49    22    23    1
@<TRIPOS>MOLECULE
*****
 45 49 0 0 0
SMALL
GASTEIGER

@<TRIPOS>ATOM
      1 C          58.9933   86.7636    8.6013 C.3     1  UNL1        0.0312
      2 C          59.7295   88.0421    8.3306 C.2     1  UNL1        0.0136
      3 C          59.4367   88.8271    7.0864 C.2     1  UNL1        0.0107
      4 C          60.1728   90.1056    6.8156 C.2     1  UNL1        0.0509
      5 C          61.2018   90.5993    7.7890 C.2     1  UNL1        0.0613
      6 C          61.4946   89.8143    9.0333 C.2     1  UNL1        0.2246
      7 N          62.4478   90.0494   10.1673 N.2     1  UNL1       -0.0378
      8 C          62.3008   88.9162   11.1389 C.2     1  UNL1        0.3605
      9 N          61.2567   87.9806   10.6054 N.2     1  UNL1       -0.0547
     10 C          60.7584   88.5357    9.3040 C.3     1  UNL1        0.2976
     11 C          63.0639   88.7479   12.4193 C.3     1  UNL1        0.2246
     12 C          63.3258   87.3741   12.9613 C.2     1  UNL1        0.0436
     13 C          64.0889   87.2059   14.2418 C.2     1  UNL1        0.0288
     14 C          64.5901   88.4116   14.9801 C.2     1  UNL1        0.0896
     15 N          64.3282   89.7855   14.4381 N.am    1  UNL1       -0.1770
     16 C          63.5651   89.9536   13.1576 C.2     1  UNL1        0.2627
     17 O          63.3032   91.3275   12.6156 O.2     1  UNL1       -0.2719
     18 N          62.8246   86.1684   12.2231 N.pl3   1  UNL1       -0.3329
     19 H          62.1214   86.2659   11.5410 H       1  UNL1        0.1466
     20 C          63.3949   84.8140   12.5239 C.3     1  UNL1        0.1211
     21 C          62.6753   83.8883   13.4595 C.3     1  UNL1        0.1522
     22 O          62.0446   84.4265   14.7095 O.3     1  UNL1       -0.3783
     23 H          62.1933   85.3837   14.7604 H       1  UNL1        0.2109
     24 C          62.5864   82.4243   13.1450 C.ar    1  UNL1        0.0067
     25 C          62.2076   81.4481   14.2189 C.ar    1  UNL1       -0.0018
     26 C          62.1188   79.9841   13.9044 C.ar    1  UNL1        0.0006
     27 C          62.4086   79.4964   12.5158 C.ar    1  UNL1        0.0114
     28 C          62.7874   80.4726   11.4419 C.ar    1  UNL1        0.0574
     29 CL         63.0772   79.9848   10.0533 Cl      1  UNL1       -0.0823
     30 C          62.8763   81.9365   11.7564 C.ar    1  UNL1        0.0095
     31 N          59.8800   90.8906    5.5713 N.pl3   1  UNL1       -0.3073
     32 C          61.0068   91.3762    4.7084 C.3     1  UNL1        0.0925
     33 C          60.7140   92.1612    3.4641 C.3     1  UNL1        0.0411
     34 C          59.2945   92.4605    3.0828 C.3     1  UNL1        0.0782
     35 C          58.1678   91.9749    3.9458 C.3     1  UNL1        0.0411
     36 C          58.4605   91.1899    5.1900 C.3     1  UNL1        0.0925
     37 N          59.0017   93.2455    1.8386 N.am    1  UNL1       -0.2722
     38 C          59.5414   92.7851    0.5170 C.2     1  UNL1        0.4014
     39 O          60.3739   91.5397    0.4396 O.2     1  UNL1       -0.2264
     40 H          58.4553   94.0628    1.8895 H       1  UNL1        0.1527
     41 O          59.2486   93.5700   -0.7273 O.3     1  UNL1       -0.4419
     42 C          57.8400   93.9780   -1.0426 C.3     1  UNL1        0.1378
     43 C          58.2149   95.4181   -0.8534 C.3     1  UNL1        0.0437
     44 C          57.4652   92.5380   -1.2317 C.3     1  UNL1        0.0437
     45 C          56.4315   94.3861   -1.3578 C.3     1  UNL1        0.0437
@<TRIPOS>BOND
     1     1     2    1
     2     2     3    2
     3     3     4    1
     4     4    31    1
     5    31    32    1
     6    32    33    1
     7    33    34    1
     8    34    37    1
     9    37    38   am
    10    38    39    2
    11    38    41    1
    12    41    42    1
    13    42    43    1
    14    42    44    1
    15    42    45    1
    16    34    35    1
    17    35    36    1
    18     4     5    2
    19     5     6    1
    20     6     7    2
    21     7     8    1
    22     8    11    1
    23    11    12    1
    24    12    18    1
    25    18    20    1
    26    20    21    1
    27    21    22    1
    28    21    24    1
    29    24    25   ar
    30    25    26   ar
    31    26    27   ar
    32    27    28   ar
    33    28    29    1
    34    28    30   ar
    35    12    13    2
    36    13    14    1
    37    14    15    2
    38    15    16    1
    39    16    17    2
    40     8     9    2
    41     9    10    1
    42    10     2    1
    43    36    31    1
    44    10     6    1
    45    16    11    1
    46    30    24   ar
    47    37    40    1
    48    18    19    1
    49    22    23    1
@<TRIPOS>MOLECULE
*****
 45 49 0 0 0
SMALL
GASTEIGER

@<TRIPOS>ATOM
      1 C          58.7033   86.4939    8.3690 C.3     1  UNL1        0.0312
      2 C          59.5367   87.7277    8.1866 C.2     1  UNL1        0.0136
      3 C          59.3017   88.6238    7.0070 C.2     1  UNL1        0.0107
      4 C          60.1350   89.8576    6.8246 C.2     1  UNL1        0.0509
      5 C          61.2034   90.1952    7.8219 C.2     1  UNL1        0.0613
      6 C          61.4384   89.2991    9.0015 C.2     1  UNL1        0.2246
      7 N          62.4117   89.3737   10.1405 N.2     1  UNL1       -0.0378
      8 C          62.1797   88.1859   11.0268 C.2     1  UNL1        0.3605
      9 N          61.0632   87.3773   10.4356 N.2     1  UNL1       -0.0547
     10 C          60.6050   88.0653    9.1839 C.3     1  UNL1        0.2976
     11 C          62.9323   87.8634   12.2837 C.3     1  UNL1        0.2246
     12 C          63.5097   88.9691   13.1167 C.2     1  UNL1        0.0436
     13 C          64.2623   88.6465   14.3736 C.2     1  UNL1        0.0288
     14 C          64.4373   87.2183   14.7974 C.2     1  UNL1        0.0896
     15 N          63.8598   86.1127   13.9644 N.am    1  UNL1       -0.1770
     16 C          63.1073   86.4353   12.7075 C.2     1  UNL1        0.2627
     17 O          62.5298   85.3296   11.8744 O.2     1  UNL1       -0.2719
     18 N          63.3348   90.3973   12.6930 N.pl3   1  UNL1       -0.3329
     19 H          62.5591   90.9136   13.0109 H       1  UNL1        0.1466
     20 C          64.3415   91.0390   11.7849 C.3     1  UNL1        0.1211
     21 C          65.0497   92.2894   12.2148 C.3     1  UNL1        0.1522
     22 O          65.0807   93.4835   11.3075 O.3     1  UNL1       -0.3783
     23 H          64.5997   93.2809   10.4899 H       1  UNL1        0.2109
     24 C          65.7269   92.3458   13.5521 C.ar    1  UNL1        0.0067
     25 C          64.9216   92.1892   14.8078 C.ar    1  UNL1       -0.0018
     26 C          65.5987   92.2456   16.1450 C.ar    1  UNL1        0.0006
     27 C          67.0813   92.4585   16.2266 C.ar    1  UNL1        0.0114
     28 C          67.8866   92.6151   14.9709 C.ar    1  UNL1        0.0574
     29 CL         69.3692   92.8280   15.0524 Cl      1  UNL1       -0.0823
     30 C          67.2095   92.5587   13.6336 C.ar    1  UNL1        0.0095
     31 N          59.8999   90.7538    5.6448 N.pl3   1  UNL1       -0.3073
     32 C          58.5070   91.1918    5.3015 C.3     1  UNL1        0.0925
     33 C          58.2720   92.0880    4.1218 C.3     1  UNL1        0.0411
     34 C          59.4299   92.5461    3.2855 C.3     1  UNL1        0.0782
     35 C          60.8228   92.1081    3.6289 C.3     1  UNL1        0.0411
     36 C          61.0578   91.2119    4.8085 C.3     1  UNL1        0.0925
     37 N          59.1949   93.4423    2.1058 N.am    1  UNL1       -0.2722
     38 C          59.6130   93.0017    0.7343 C.2     1  UNL1        0.4014
     39 O          60.2660   91.6650    0.5425 O.2     1  UNL1       -0.2264
     40 H          58.7663   94.3196    2.2318 H       1  UNL1        0.1527
     41 O          59.3781   93.8978   -0.4455 O.3     1  UNL1       -0.4419
     42 C          60.5436   94.4558   -1.2073 C.3     1  UNL1        0.1378
     43 C          60.8573   95.3684   -0.0589 C.3     1  UNL1        0.0437
     44 C          60.2298   93.5432   -2.3557 C.3     1  UNL1        0.0437
     45 C          61.7089   95.0137   -1.9691 C.3     1  UNL1        0.0437
@<TRIPOS>BOND
     1     1     2    1
     2     2     3    2
     3     3     4    1
     4     4    31    1
     5    31    32    1
     6    32    33    1
     7    33    34    1
     8    34    37    1
     9    37    38   am
    10    38    39    2
    11    38    41    1
    12    41    42    1
    13    42    43    1
    14    42    44    1
    15    42    45    1
    16    34    35    1
    17    35    36    1
    18     4     5    2
    19     5     6    1
    20     6     7    2
    21     7     8    1
    22     8    11    1
    23    11    12    1
    24    12    18    1
    25    18    20    1
    26    20    21    1
    27    21    22    1
    28    21    24    1
    29    24    25   ar
    30    25    26   ar
    31    26    27   ar
    32    27    28   ar
    33    28    29    1
    34    28    30   ar
    35    12    13    2
    36    13    14    1
    37    14    15    2
    38    15    16    1
    39    16    17    2
    40     8     9    2
    41     9    10    1
    42    10     2    1
    43    36    31    1
    44    10     6    1
    45    16    11    1
    46    30    24   ar
    47    37    40    1
    48    18    19    1
    49    22    23    1
