@<TRIPOS>MOLECULE
*****
 19 20 0 0 0
SMALL
GASTEIGER

@<TRIPOS>ATOM
      1 C          66.3103   93.6495   10.5418 C.2     1  UNL1        0.1535
      2 N          66.9427   94.1150   11.8199 N.2     1  UNL1       -0.2467
      3 C          66.3114   93.3594   12.9515 C.3     1  UNL1        0.1778
      4 C          66.5355   93.4001   14.4341 C.3     1  UNL1        0.2155
      5 F          67.5580   94.3326   15.0128 F       1  UNL1       -0.2324
      6 C          65.7371   92.5082   15.3381 C.3     1  UNL1        0.1746
      7 O          65.9612   92.5488   16.8207 O.3     1  UNL1       -0.3792
      8 C          64.7145   91.5757   14.7594 C.3     1  UNL1        0.1749
      9 O          64.4904   91.5351   13.2767 O.3     1  UNL1       -0.3402
     10 C          65.2888   92.4270   12.3728 C.3     1  UNL1        0.1941
     11 S          65.2882   92.6062   10.8836 S.3     1  UNL1       -0.0497
     12 H          66.6505   93.1997   17.0257 H       1  UNL1        0.2106
     13 C          63.9161   90.6838   15.6633 C.3     1  UNL1        0.1693
     14 O          63.2544   91.2517   16.8838 O.3     1  UNL1       -0.3794
     15 H          63.9325   91.5516   17.5093 H       1  UNL1        0.2105
     16 N          66.6419   94.1410    9.1640 N.pl3   1  UNL1       -0.3135
     17 H          66.0018   94.7084    8.6764 H       1  UNL1        0.1487
     18 C          68.6202   92.4782    8.8968 C.3     1  UNL1        0.0230
     19 C          67.9486   93.7680    8.5289 C.3     1  UNL1        0.0887
@<TRIPOS>BOND
     1    18    19    1
     2    19    16    1
     3    16     1    1
     4     1     2    2
     5     3     2    1
     6     3     4    1
     7     4     5    1
     8     4     6    1
     9     6     7    1
    10     6     8    1
    11     8    13    1
    12    13    14    1
    13     8     9    1
    14    10     9    1
    15    10    11    1
    16    11     1    1
    17    10     3    1
    18    16    17    1
    19     7    12    1
    20    14    15    1
@<TRIPOS>MOLECULE
*****
 19 20 0 0 0
SMALL
GASTEIGER

@<TRIPOS>ATOM
      1 C          66.4454   93.6374   11.0741 C.2     1  UNL1        0.1535
      2 N          65.3620   92.7852   10.4824 N.2     1  UNL1       -0.2467
      3 C          64.7196   92.0126   11.5962 C.3     1  UNL1        0.1778
      4 C          63.5983   91.0164   11.6101 C.3     1  UNL1        0.2155
      5 F          62.9120   90.6417   10.3300 F       1  UNL1       -0.2324
      6 C          63.1634   90.3947   12.9041 C.3     1  UNL1        0.1746
      7 O          62.0421   89.3985   12.9181 O.3     1  UNL1       -0.3792
      8 C          63.8498   90.7694   14.1842 C.3     1  UNL1        0.1749
      9 O          64.9711   91.7657   14.1702 O.3     1  UNL1       -0.3402
     10 C          65.4060   92.3873   12.8762 C.3     1  UNL1        0.1941
     11 S          66.4725   93.3914   12.5535 S.3     1  UNL1       -0.0497
     12 H          61.7119   89.2707   12.0150 H       1  UNL1        0.2106
     13 C          63.4149   90.1478   15.4782 C.3     1  UNL1        0.1693
     14 O          63.3396   90.9816   16.7228 O.3     1  UNL1       -0.3794
     15 H          64.2312   91.2703   16.9730 H       1  UNL1        0.2105
     16 N          67.3439   94.5715   10.3190 N.pl3   1  UNL1       -0.3135
     17 H          67.3945   95.5206   10.5755 H       1  UNL1        0.1487
     18 C          68.7265   92.6690    9.2148 C.3     1  UNL1        0.0230
     19 C          68.1652   94.0594    9.1730 C.3     1  UNL1        0.0887
@<TRIPOS>BOND
     1    18    19    1
     2    19    16    1
     3    16     1    1
     4     1     2    2
     5     3     2    1
     6     3     4    1
     7     4     5    1
     8     4     6    1
     9     6     7    1
    10     6     8    1
    11     8    13    1
    12    13    14    1
    13     8     9    1
    14    10     9    1
    15    10    11    1
    16    11     1    1
    17    10     3    1
    18    16    17    1
    19     7    12    1
    20    14    15    1
@<TRIPOS>MOLECULE
*****
 19 20 0 0 0
SMALL
GASTEIGER

@<TRIPOS>ATOM
      1 C          61.7789   89.6848   11.8958 C.2     1  UNL1        0.1535
      2 N          62.7134   89.9381   13.0415 N.2     1  UNL1       -0.2467
      3 C          63.7746   90.8889   12.5727 C.3     1  UNL1        0.1778
      4 C          64.9586   91.4933   13.2674 C.3     1  UNL1        0.2155
      5 F          65.2372   91.1590   14.7029 F       1  UNL1       -0.2324
      6 C          65.8642   92.4322   12.5267 C.3     1  UNL1        0.1746
      7 O          67.0481   93.0367   13.2214 O.3     1  UNL1       -0.3792
      8 C          65.5856   92.7666   11.0912 C.3     1  UNL1        0.1749
      9 O          64.4015   92.1620   10.3965 O.3     1  UNL1       -0.3402
     10 C          63.4961   91.2232   11.1372 C.3     1  UNL1        0.1941
     11 S          62.2627   90.4791   10.7189 S.3     1  UNL1       -0.0497
     12 H          67.0827   92.7188   14.1372 H       1  UNL1        0.2106
     13 C          66.4911   93.7054   10.3505 C.3     1  UNL1        0.1693
     14 O          67.0023   94.9434   11.0257 O.3     1  UNL1       -0.3794
     15 H          66.2611   95.5422   11.2073 H       1  UNL1        0.2105
     16 N          60.5725   88.7938   11.9223 N.pl3   1  UNL1       -0.3135
     17 H          59.8873   88.9137   12.6190 H       1  UNL1        0.1487
     18 C          61.2260   86.4644   10.9753 C.3     1  UNL1        0.0230
     19 C          60.4102   87.7201   10.8875 C.3     1  UNL1        0.0887
@<TRIPOS>BOND
     1    18    19    1
     2    19    16    1
     3    16     1    1
     4     1     2    2
     5     3     2    1
     6     3     4    1
     7     4     5    1
     8     4     6    1
     9     6     7    1
    10     6     8    1
    11     8    13    1
    12    13    14    1
    13     8     9    1
    14    10     9    1
    15    10    11    1
    16    11     1    1
    17    10     3    1
    18    16    17    1
    19     7    12    1
    20    14    15    1
@<TRIPOS>MOLECULE
*****
 19 20 0 0 0
SMALL
GASTEIGER

@<TRIPOS>ATOM
      1 C          63.5344   89.5229   12.8329 C.2     1  UNL1        0.1535
      2 N          63.2280   88.0877   12.5225 N.2     1  UNL1       -0.2467
      3 C          62.3215   88.0551   11.3278 C.3     1  UNL1        0.1778
      4 C          61.6944   86.9198   10.5744 C.3     1  UNL1        0.2155
      5 F          61.9483   85.5047   11.0024 F       1  UNL1       -0.2324
      6 C          60.8135   87.1994    9.3930 C.3     1  UNL1        0.1746
      7 O          60.1864   86.0641    8.6395 O.3     1  UNL1       -0.3792
      8 C          60.5596   88.6145    8.9650 C.3     1  UNL1        0.1749
      9 O          61.1867   89.7499    9.7185 O.3     1  UNL1       -0.3402
     10 C          62.0676   89.4702   10.8999 C.3     1  UNL1        0.1941
     11 S          62.8173   90.3773   11.8300 S.3     1  UNL1       -0.0497
     12 H          60.4507   85.2228    9.0437 H       1  UNL1        0.2106
     13 C          59.6787   88.8942    7.7836 C.3     1  UNL1        0.1693
     14 O          58.5273   87.9839    7.4744 O.3     1  UNL1       -0.3794
     15 H          58.8646   87.1101    7.2221 H       1  UNL1        0.2105
     16 N          64.4051   90.0170   13.9500 N.pl3   1  UNL1       -0.3135
     17 H          65.3841   90.0191   13.8469 H       1  UNL1        0.1487
     18 C          63.2594   89.5259   16.2295 C.3     1  UNL1        0.0230
     19 C          63.7840   90.5077   15.2241 C.3     1  UNL1        0.0887
@<TRIPOS>BOND
     1    18    19    1
     2    19    16    1
     3    16     1    1
     4     1     2    2
     5     3     2    1
     6     3     4    1
     7     4     5    1
     8     4     6    1
     9     6     7    1
    10     6     8    1
    11     8    13    1
    12    13    14    1
    13     8     9    1
    14    10     9    1
    15    10    11    1
    16    11     1    1
    17    10     3    1
    18    16    17    1
    19     7    12    1
    20    14    15    1
@<TRIPOS>MOLECULE
*****
 19 20 0 0 0
SMALL
GASTEIGER

@<TRIPOS>ATOM
      1 C          63.1985   85.3740   12.5898 C.2     1  UNL1        0.1535
      2 N          63.1259   86.8699   12.5062 N.2     1  UNL1       -0.2467
      3 C          62.2440   87.2271   11.3467 C.3     1  UNL1        0.1778
      4 C          61.8102   88.5488   10.7855 C.3     1  UNL1        0.2155
      5 F          62.2827   89.8239   11.4185 F       1  UNL1       -0.2324
      6 C          60.9038   88.5954    9.5911 C.3     1  UNL1        0.1746
      7 O          60.4699   89.9170    9.0300 O.3     1  UNL1       -0.3792
      8 C          60.4312   87.3203    8.9581 C.3     1  UNL1        0.1749
      9 O          60.8651   85.9986    9.5193 O.3     1  UNL1       -0.3402
     10 C          61.7714   85.9520   10.7136 C.3     1  UNL1        0.1941
     11 S          62.3613   84.8067   11.4819 S.3     1  UNL1       -0.0497
     12 H          60.8618   90.6344    9.5522 H       1  UNL1        0.2106
     13 C          59.5248   87.3668    7.7638 C.3     1  UNL1        0.1693
     14 O          58.2070   86.6511    7.7941 O.3     1  UNL1       -0.3794
     15 H          58.3596   85.6945    7.8448 H       1  UNL1        0.2105
     16 N          63.9722   84.5840   13.6033 N.pl3   1  UNL1       -0.3135
     17 H          64.7675   84.0737   13.3270 H       1  UNL1        0.1487
     18 C          63.8666   85.7281   15.9335 C.3     1  UNL1        0.0230
     19 C          63.5344   84.5716   15.0379 C.3     1  UNL1        0.0887
@<TRIPOS>BOND
     1    18    19    1
     2    19    16    1
     3    16     1    1
     4     1     2    2
     5     3     2    1
     6     3     4    1
     7     4     5    1
     8     4     6    1
     9     6     7    1
    10     6     8    1
    11     8    13    1
    12    13    14    1
    13     8     9    1
    14    10     9    1
    15    10    11    1
    16    11     1    1
    17    10     3    1
    18    16    17    1
    19     7    12    1
    20    14    15    1
@<TRIPOS>MOLECULE
*****
 19 20 0 0 0
SMALL
GASTEIGER

@<TRIPOS>ATOM
      1 C          61.5201   86.9479    9.6576 C.2     1  UNL1        0.1535
      2 N          62.3984   85.7862    9.2982 N.2     1  UNL1       -0.2467
      3 C          62.6799   85.0125   10.5520 C.3     1  UNL1        0.1778
      4 C          63.4866   83.7740   10.8073 C.3     1  UNL1        0.2155
      5 F          64.1908   83.0905    9.6729 F       1  UNL1       -0.2324
      6 C          63.5891   83.2188   12.1971 C.3     1  UNL1        0.1746
      7 O          64.3957   81.9803   12.4524 O.3     1  UNL1       -0.3792
      8 C          62.8848   83.9023   13.3315 C.3     1  UNL1        0.1749
      9 O          62.0781   85.1410   13.0761 O.3     1  UNL1       -0.3402
     10 C          61.9757   85.6960   11.6864 C.3     1  UNL1        0.1941
     11 S          61.2589   86.8921   11.1336 S.3     1  UNL1       -0.0497
     12 H          64.7814   81.6681   11.6189 H       1  UNL1        0.2106
     13 C          62.9872   83.3473   14.7212 C.3     1  UNL1        0.1693
     14 O          62.6283   81.9150   14.9851 O.3     1  UNL1       -0.3794
     15 H          61.6800   81.7851   14.8280 H       1  UNL1        0.2105
     16 N          60.9953   87.9835    8.7078 N.pl3   1  UNL1       -0.3135
     17 H          61.5809   88.7138    8.4030 H       1  UNL1        0.1487
     18 C          59.0400   86.6151    7.6811 C.3     1  UNL1        0.0230
     19 C          59.5781   87.9063    8.2224 C.3     1  UNL1        0.0887
@<TRIPOS>BOND
     1    18    19    1
     2    19    16    1
     3    16     1    1
     4     1     2    2
     5     3     2    1
     6     3     4    1
     7     4     5    1
     8     4     6    1
     9     6     7    1
    10     6     8    1
    11     8    13    1
    12    13    14    1
    13     8     9    1
    14    10     9    1
    15    10    11    1
    16    11     1    1
    17    10     3    1
    18    16    17    1
    19     7    12    1
    20    14    15    1
@<TRIPOS>MOLECULE
*****
 19 20 0 0 0
SMALL
GASTEIGER

@<TRIPOS>ATOM
      1 C          62.3642   89.6875   12.4983 C.2     1  UNL1        0.1535
      2 N          62.4868   89.7548   13.9918 N.2     1  UNL1       -0.2467
      3 C          63.5763   90.7309   14.3239 C.3     1  UNL1        0.1778
      4 C          64.1380   91.2009   15.6329 C.3     1  UNL1        0.2155
      5 F          63.5873   90.6649   16.9211 F       1  UNL1       -0.2324
      6 C          65.2505   92.2069   15.6538 C.3     1  UNL1        0.1746
      7 O          65.8122   92.6770   16.9628 O.3     1  UNL1       -0.3792
      8 C          65.8012   92.7429   14.3656 C.3     1  UNL1        0.1749
      9 O          65.2394   92.2728   13.0565 O.3     1  UNL1       -0.3402
     10 C          64.1270   91.2669   13.0357 C.3     1  UNL1        0.1941
     11 S          63.3779   90.6220   11.9075 S.3     1  UNL1       -0.0497
     12 H          65.3478   92.2355   17.6910 H       1  UNL1        0.2106
     13 C          66.9136   93.7489   14.3864 C.3     1  UNL1        0.1693
     14 O          67.9456   93.7036   15.4740 O.3     1  UNL1       -0.3794
     15 H          67.5272   93.9066   16.3253 H       1  UNL1        0.2105
     16 N          61.3976   88.8353   11.7305 N.pl3   1  UNL1       -0.3135
     17 H          61.4605   87.8540   11.7789 H       1  UNL1        0.1487
     18 C          59.5045   90.5927   11.4527 C.3     1  UNL1        0.0230
     19 C          60.3353   89.4782   10.8891 C.3     1  UNL1        0.0887
@<TRIPOS>BOND
     1    18    19    1
     2    19    16    1
     3    16     1    1
     4     1     2    2
     5     3     2    1
     6     3     4    1
     7     4     5    1
     8     4     6    1
     9     6     7    1
    10     6     8    1
    11     8    13    1
    12    13    14    1
    13     8     9    1
    14    10     9    1
    15    10    11    1
    16    11     1    1
    17    10     3    1
    18    16    17    1
    19     7    12    1
    20    14    15    1
@<TRIPOS>MOLECULE
*****
 19 20 0 0 0
SMALL
GASTEIGER

@<TRIPOS>ATOM
      1 C          62.0952   87.3811   10.8451 C.2     1  UNL1        0.1535
      2 N          62.9012   87.4857   12.1057 N.2     1  UNL1       -0.2467
      3 C          63.0981   86.1005   12.6465 C.3     1  UNL1        0.1778
      4 C          63.8121   85.5900   13.8628 C.3     1  UNL1        0.2155
      5 F          64.4965   86.5508   14.7893 F       1  UNL1       -0.2324
      6 C          63.8417   84.1185   14.1528 C.3     1  UNL1        0.1746
      7 O          64.5557   83.6079   15.3691 O.3     1  UNL1       -0.3792
      8 C          63.1572   83.1577   13.2263 C.3     1  UNL1        0.1749
      9 O          62.4432   83.6683   12.0099 O.3     1  UNL1       -0.3402
     10 C          62.4136   85.1397   11.7201 C.3     1  UNL1        0.1941
     11 S          61.7938   85.9311   10.6067 S.3     1  UNL1       -0.0497
     12 H          64.9401   84.3540   15.8553 H       1  UNL1        0.2106
     13 C          63.1868   81.6863   13.5162 C.3     1  UNL1        0.1693
     14 O          62.5621   81.1567   14.7728 O.3     1  UNL1       -0.3794
     15 H          63.0551   81.4835   15.5416 H       1  UNL1        0.2105
     16 N          61.6658   88.5254    9.9755 N.pl3   1  UNL1       -0.3135
     17 H          61.3488   88.3553    9.0591 H       1  UNL1        0.1487
     18 C          62.9482   90.7629   10.2901 C.3     1  UNL1        0.0230
     19 C          61.7196   89.9288   10.5021 C.3     1  UNL1        0.0887
@<TRIPOS>BOND
     1    18    19    1
     2    19    16    1
     3    16     1    1
     4     1     2    2
     5     3     2    1
     6     3     4    1
     7     4     5    1
     8     4     6    1
     9     6     7    1
    10     6     8    1
    11     8    13    1
    12    13    14    1
    13     8     9    1
    14    10     9    1
    15    10    11    1
    16    11     1    1
    17    10     3    1
    18    16    17    1
    19     7    12    1
    20    14    15    1
@<TRIPOS>MOLECULE
*****
 19 20 0 0 0
SMALL
GASTEIGER

@<TRIPOS>ATOM
      1 C          63.4411   83.1242   12.9864 C.2     1  UNL1        0.1535
      2 N          62.6543   83.5952   11.7993 N.2     1  UNL1       -0.2467
      3 C          62.6500   85.0951   11.8115 C.3     1  UNL1        0.1778
      4 C          62.0334   86.1046   10.8892 C.3     1  UNL1        0.2155
      5 F          61.2492   85.6485    9.6946 F       1  UNL1       -0.2324
      6 C          62.2010   87.5702   11.1614 C.3     1  UNL1        0.1746
      7 O          61.5844   88.5796   10.2391 O.3     1  UNL1       -0.3792
      8 C          62.9852   88.0262   12.3560 C.3     1  UNL1        0.1749
      9 O          63.6019   87.0166   13.2783 O.3     1  UNL1       -0.3402
     10 C          63.4343   85.5512   13.0061 C.3     1  UNL1        0.1941
     11 S          63.9232   84.3330   13.7321 S.3     1  UNL1       -0.0497
     12 H          61.1164   88.1208    9.5240 H       1  UNL1        0.2106
     13 C          63.1529   89.4917   12.6283 C.3     1  UNL1        0.1693
     14 O          62.5173   90.1070   13.8397 O.3     1  UNL1       -0.3794
     15 H          61.5520   90.0672   13.7538 H       1  UNL1        0.2105
     16 N          63.7003   81.6952   13.3617 N.pl3   1  UNL1       -0.3135
     17 H          64.6196   81.3926   13.5421 H       1  UNL1        0.1487
     18 C          61.2791   81.1429   14.1249 C.3     1  UNL1        0.0230
     19 C          62.5589   80.7272   13.4621 C.3     1  UNL1        0.0887
@<TRIPOS>BOND
     1    18    19    1
     2    19    16    1
     3    16     1    1
     4     1     2    2
     5     3     2    1
     6     3     4    1
     7     4     5    1
     8     4     6    1
     9     6     7    1
    10     6     8    1
    11     8    13    1
    12    13    14    1
    13     8     9    1
    14    10     9    1
    15    10    11    1
    16    11     1    1
    17    10     3    1
    18    16    17    1
    19     7    12    1
    20    14    15    1
