@<TRIPOS>MOLECULE
*****
 56 60 0 0 0
SMALL
GASTEIGER

@<TRIPOS>ATOM
      1 C          60.5837   92.3948    2.6884 C.ar    1  UNL1        0.0426
      2 C          61.8426   92.6762    1.9231 C.ar    1  UNL1        0.0083
      3 C          61.7763   93.3960    0.6088 C.ar    1  UNL1        0.0021
      4 C          60.4511   93.8345    0.0598 C.ar    1  UNL1        0.0172
      5 C          59.1921   93.5531    0.8251 C.ar    1  UNL1        0.0021
      6 C          59.2584   92.8333    2.1394 C.ar    1  UNL1        0.0083
      7 C          60.3848   94.5543   -1.2545 C.ar    1  UNL1        0.0769
      8 C          60.6599   96.0121   -1.4762 C.ar    1  UNL1        0.1171
      9 N          60.4770   96.3016   -2.9366 N.ar    1  UNL1       -0.2279
     10 C          60.0888   95.0226   -3.6175 C.ar    1  UNL1        0.1353
     11 N          60.0319   93.9427   -2.5779 N.ar    1  UNL1       -0.3394
     12 H          59.8031   92.9984   -2.7364 H       1  UNL1        0.1671
     13 C          59.8071   94.8532   -5.0811 C.3     1  UNL1        0.1319
     14 C          60.7604   95.1444   -6.2019 C.3     1  UNL1        0.0293
     15 C          60.0651   94.8340   -7.4943 C.3     1  UNL1        0.0237
     16 C          58.6820   94.3510   -7.1721 C.3     1  UNL1        0.0939
     17 N          58.5226   94.3629   -5.6807 N.am    1  UNL1       -0.2730
     18 C          57.2943   93.9559   -4.9221 C.2     1  UNL1        0.2439
     19 O          57.2823   94.0212   -3.4235 O.2     1  UNL1       -0.2731
     20 C          56.0779   93.4836   -5.6619 C.3     1  UNL1        0.1512
     21 N          55.1657   94.4778   -6.3174 N.am    1  UNL1       -0.2640
     22 C          54.3720   95.4346   -5.4780 C.2     1  UNL1        0.4021
     23 O          54.4903   95.3971   -3.9832 O.2     1  UNL1       -0.2264
     24 H          55.0881   94.5024   -7.2985 H       1  UNL1        0.1532
     25 O          53.4598   96.4288   -6.1334 O.3     1  UNL1       -0.4306
     26 C          51.9967   96.4359   -5.8031 C.3     1  UNL1        0.2573
     27 C          55.7735   92.0173   -5.7463 C.3     1  UNL1        0.0270
     28 C          55.4477   91.3940   -7.0712 C.3     1  UNL1        0.0022
     29 C          55.7951   91.1742   -4.5059 C.3     1  UNL1        0.0022
     30 C          60.7161   90.9552    5.3171 C.1     1  UNL1       -0.0091
     31 C          60.6499   91.6750    4.0028 C.1     1  UNL1       -0.0512
     32 C          60.8487   89.5156    7.9458 C.1     1  UNL1       -0.0323
     33 C          60.7824   90.2354    6.6315 C.1     1  UNL1       -0.0077
     34 C          61.7660   87.7222   11.2636 C.ar    1  UNL1        0.1358
     35 N          60.2680   87.6539   11.3017 N.ar    1  UNL1       -0.2272
     36 C          59.7421   88.3173   10.0634 C.ar    1  UNL1        0.1257
     37 C          60.9150   88.7958    9.2601 C.ar    1  UNL1        0.1204
     38 N          62.1658   88.4280   10.0018 N.ar    1  UNL1       -0.3331
     39 H          63.0874   88.6167    9.7115 H       1  UNL1        0.1677
     40 C          63.5125   89.4884   13.3803 C.2     1  UNL1        0.2439
     41 O          62.6640   90.3092   12.4549 O.2     1  UNL1       -0.2731
     42 N          63.5029   87.9920   13.2775 N.am    1  UNL1       -0.2730
     43 C          64.2943   87.0445   14.1295 C.3     1  UNL1        0.0939
     44 C          63.9807   85.6472   13.6832 C.3     1  UNL1        0.0237
     45 C          62.9954   85.7310   12.5553 C.3     1  UNL1        0.0293
     46 C          62.7001   87.1801   12.3045 C.3     1  UNL1        0.1319
     47 C          64.3706   90.1640   14.4085 C.3     1  UNL1        0.1512
     48 C          65.9872   91.7949   13.1935 C.2     1  UNL1        0.4021
     49 O          64.8136   92.5742   12.6783 O.2     1  UNL1       -0.2264
     50 N          65.7657   90.5897   14.0586 N.am    1  UNL1       -0.2640
     51 H          66.5359   90.0782   14.3968 H       1  UNL1        0.1532
     52 C          67.7631   92.4359   11.4087 C.3     1  UNL1        0.2573
     53 O          67.3822   92.2208   12.8435 O.3     1  UNL1       -0.4306
     54 C          63.8336   90.4137   15.7867 C.3     1  UNL1        0.0270
     55 C          62.9926   89.3725   16.4639 C.3     1  UNL1        0.0022
     56 C          64.1376   91.7047   16.4875 C.3     1  UNL1        0.0022
@<TRIPOS>BOND
     1    52    53    1
     2    53    48    1
     3    48    49    2
     4    48    50   am
     5    47    50    1
     6    47    40    1
     7    40    41    2
     8    40    42   am
     9    42    43    1
    10    43    44    1
    11    44    45    1
    12    45    46    1
    13    46    34    1
    14    34    35   ar
    15    35    36   ar
    16    36    37   ar
    17    37    32    1
    18    32    33    3
    19    33    30    1
    20    30    31    3
    21    31     1    1
    22     1     2   ar
    23     2     3   ar
    24     3     4   ar
    25     4     7    1
    26     7     8   ar
    27     8     9   ar
    28     9    10   ar
    29    13    10    1
    30    13    14    1
    31    14    15    1
    32    15    16    1
    33    16    17    1
    34    17    18   am
    35    18    19    2
    36    18    20    1
    37    20    21    1
    38    21    22   am
    39    22    23    2
    40    22    25    1
    41    25    26    1
    42    20    27    1
    43    27    28    1
    44    27    29    1
    45    10    11   ar
    46     4     5   ar
    47     5     6   ar
    48    37    38   ar
    49    47    54    1
    50    54    55    1
    51    54    56    1
    52    46    42    1
    53    38    34   ar
    54     6     1   ar
    55    11     7   ar
    56    17    13    1
    57    50    51    1
    58    21    24    1
    59    11    12    1
    60    38    39    1
@<TRIPOS>MOLECULE
*****
 56 60 0 0 0
SMALL
GASTEIGER

@<TRIPOS>ATOM
      1 C          60.2958   92.7713    2.6014 C.ar    1  UNL1        0.0426
      2 C          59.1232   92.5191    1.7006 C.ar    1  UNL1        0.0083
      3 C          59.0147   93.2418    0.3907 C.ar    1  UNL1        0.0021
      4 C          60.0788   94.2167   -0.0184 C.ar    1  UNL1        0.0172
      5 C          61.2514   94.4689    0.8823 C.ar    1  UNL1        0.0021
      6 C          61.3599   93.7462    2.1922 C.ar    1  UNL1        0.0083
      7 C          59.9702   94.9394   -1.3284 C.ar    1  UNL1        0.0769
      8 C          60.1084   96.4189   -1.5332 C.ar    1  UNL1        0.1171
      9 N          59.9280   96.7034   -2.9949 N.ar    1  UNL1       -0.2279
     10 C          59.6783   95.3997   -3.6935 C.ar    1  UNL1        0.1353
     11 N          59.7044   94.3095   -2.6635 N.ar    1  UNL1       -0.3394
     12 H          59.5706   93.3491   -2.8339 H       1  UNL1        0.1671
     13 C          59.4437   95.2180   -5.1638 C.3     1  UNL1        0.1319
     14 C          60.4818   95.3213   -6.2417 C.3     1  UNL1        0.0293
     15 C          59.8095   95.0683   -7.5585 C.3     1  UNL1        0.0237
     16 C          58.3559   94.8088   -7.2945 C.3     1  UNL1        0.0939
     17 N          58.1299   94.9013   -5.8145 N.am    1  UNL1       -0.2730
     18 C          56.8200   94.7105   -5.1091 C.2     1  UNL1        0.2439
     19 O          56.7472   94.8342   -3.6160 O.2     1  UNL1       -0.2731
     20 C          55.5827   94.3961   -5.8967 C.3     1  UNL1        0.1512
     21 N          55.4774   93.0983   -6.6415 N.am    1  UNL1       -0.2640
     22 C          55.6247   91.7984   -5.9076 C.2     1  UNL1        0.4021
     23 O          55.8772   91.7963   -4.4290 O.2     1  UNL1       -0.2264
     24 H          55.3117   93.0996   -7.6119 H       1  UNL1        0.1532
     25 O          55.5194   90.5005   -6.6523 O.3     1  UNL1       -0.4306
     26 C          54.1991   90.0630   -7.2139 C.3     1  UNL1        0.2573
     27 C          54.4508   95.3794   -5.9397 C.3     1  UNL1        0.0270
     28 C          53.8978   95.8292   -7.2595 C.3     1  UNL1        0.0022
     29 C          53.8718   95.9128   -4.6629 C.3     1  UNL1        0.0022
     30 C          60.5130   91.3259    5.2213 C.1     1  UNL1       -0.0091
     31 C          60.4044   92.0486    3.9114 C.1     1  UNL1       -0.0512
     32 C          60.7301   89.8805    7.8412 C.1     1  UNL1       -0.0323
     33 C          60.6215   90.6032    6.5313 C.1     1  UNL1       -0.0077
     34 C          61.7349   88.2178   11.2014 C.ar    1  UNL1        0.1358
     35 N          60.2765   87.8735   11.1323 N.ar    1  UNL1       -0.2272
     36 C          59.7227   88.4545    9.8651 C.ar    1  UNL1        0.1257
     37 C          60.8387   89.1578    9.1511 C.ar    1  UNL1        0.1204
     38 N          62.0823   89.0115    9.9769 N.ar    1  UNL1       -0.3331
     39 H          62.9706   89.3729    9.7543 H       1  UNL1        0.1677
     40 C          62.7698   85.1976   11.8778 C.2     1  UNL1        0.2439
     41 O          61.8250   85.2727   10.7152 O.2     1  UNL1       -0.2731
     42 N          63.1556   86.4471   12.6126 N.am    1  UNL1       -0.2730
     43 C          64.0848   86.5279   13.7874 C.3     1  UNL1        0.0939
     44 C          64.1834   87.9660   14.2024 C.3     1  UNL1        0.0237
     45 C          63.3151   88.7740   13.2842 C.3     1  UNL1        0.0293
     46 C          62.6799   87.8354   12.3017 C.3     1  UNL1        0.1319
     47 C          63.3290   83.8731   12.3057 C.3     1  UNL1        0.1512
     48 C          63.1542   81.4903   11.2851 C.2     1  UNL1        0.4021
     49 O          62.1409   81.1186   12.3268 O.2     1  UNL1       -0.2264
     50 N          63.7482   82.8677   11.2746 N.am    1  UNL1       -0.2640
     51 H          64.4133   83.1117   10.5909 H       1  UNL1        0.1532
     52 C          62.5621   79.5436    9.6696 C.3     1  UNL1        0.2573
     53 O          63.5734   80.4848   10.2540 O.3     1  UNL1       -0.4306
     54 C          63.4688   83.5541   13.7647 C.3     1  UNL1        0.0270
     55 C          62.2492   83.4667   14.6335 C.3     1  UNL1        0.0022
     56 C          64.8283   83.3226   14.3549 C.3     1  UNL1        0.0022
@<TRIPOS>BOND
     1    52    53    1
     2    53    48    1
     3    48    49    2
     4    48    50   am
     5    47    50    1
     6    47    40    1
     7    40    41    2
     8    40    42   am
     9    42    43    1
    10    43    44    1
    11    44    45    1
    12    45    46    1
    13    46    34    1
    14    34    35   ar
    15    35    36   ar
    16    36    37   ar
    17    37    32    1
    18    32    33    3
    19    33    30    1
    20    30    31    3
    21    31     1    1
    22     1     2   ar
    23     2     3   ar
    24     3     4   ar
    25     4     7    1
    26     7     8   ar
    27     8     9   ar
    28     9    10   ar
    29    13    10    1
    30    13    14    1
    31    14    15    1
    32    15    16    1
    33    16    17    1
    34    17    18   am
    35    18    19    2
    36    18    20    1
    37    20    21    1
    38    21    22   am
    39    22    23    2
    40    22    25    1
    41    25    26    1
    42    20    27    1
    43    27    28    1
    44    27    29    1
    45    10    11   ar
    46     4     5   ar
    47     5     6   ar
    48    37    38   ar
    49    47    54    1
    50    54    55    1
    51    54    56    1
    52    46    42    1
    53    38    34   ar
    54     6     1   ar
    55    11     7   ar
    56    17    13    1
    57    50    51    1
    58    21    24    1
    59    11    12    1
    60    38    39    1
@<TRIPOS>MOLECULE
*****
 56 60 0 0 0
SMALL
GASTEIGER

@<TRIPOS>ATOM
      1 C          60.1093   91.6511    4.0921 C.ar    1  UNL1        0.0426
      2 C          61.2293   92.1402    3.2224 C.ar    1  UNL1        0.0083
      3 C          60.9308   92.9881    2.0216 C.ar    1  UNL1        0.0021
      4 C          59.5125   93.3469    1.6905 C.ar    1  UNL1        0.0172
      5 C          58.3926   92.8578    2.5603 C.ar    1  UNL1        0.0021
      6 C          58.6910   92.0099    3.7611 C.ar    1  UNL1        0.0083
      7 C          59.2141   94.1948    0.4896 C.ar    1  UNL1        0.0769
      8 C          60.2013   95.0382   -0.2615 C.ar    1  UNL1        0.1171
      9 N          59.4735   95.7128   -1.3863 N.ar    1  UNL1       -0.2279
     10 C          58.0364   95.2864   -1.3303 C.ar    1  UNL1        0.1353
     11 N          57.8761   94.3483   -0.1709 N.ar    1  UNL1       -0.3394
     12 H          57.0396   93.9102    0.1076 H       1  UNL1        0.1671
     13 C          56.9504   95.7218   -2.2689 C.3     1  UNL1        0.1319
     14 C          55.8645   96.7104   -1.9629 C.3     1  UNL1        0.0293
     15 C          55.0025   96.8445   -3.1831 C.3     1  UNL1        0.0237
     16 C          55.5557   95.9389   -4.2433 C.3     1  UNL1        0.0939
     17 N          56.7595   95.2450   -3.6782 N.am    1  UNL1       -0.2730
     18 C          57.6211   94.2492   -4.3963 C.2     1  UNL1        0.2439
     19 O          58.7984   93.6350   -3.6987 O.2     1  UNL1       -0.2731
     20 C          57.3055   93.8674   -5.8122 C.3     1  UNL1        0.1512
     21 N          56.2183   92.8737   -6.0964 N.am    1  UNL1       -0.2640
     22 C          56.2790   91.5022   -5.4920 C.2     1  UNL1        0.4021
     23 O          57.4268   91.1244   -4.6033 O.2     1  UNL1       -0.2264
     24 H          55.4650   93.1217   -6.6797 H       1  UNL1        0.1532
     25 O          55.1918   90.5086   -5.7762 O.3     1  UNL1       -0.4306
     26 C          54.5946   90.4226   -7.1495 C.3     1  UNL1        0.2573
     27 C          58.0770   94.4791   -6.9438 C.3     1  UNL1        0.0270
     28 C          57.7013   95.8363   -7.4604 C.3     1  UNL1        0.0022
     29 C          59.2242   93.7337   -7.5588 C.3     1  UNL1        0.0022
     30 C          60.7062   89.9553    6.4938 C.1     1  UNL1       -0.0091
     31 C          60.4078   90.8032    5.2930 C.1     1  UNL1       -0.0512
     32 C          61.3030   88.2595    8.8955 C.1     1  UNL1       -0.0323
     33 C          61.0046   89.1074    7.6947 C.1     1  UNL1       -0.0077
     34 C          62.6292   86.5619   12.1243 C.ar    1  UNL1        0.1358
     35 N          61.4923   85.6519   11.7642 N.ar    1  UNL1       -0.2272
     36 C          60.8572   86.1771   10.5110 C.ar    1  UNL1        0.1257
     37 C          61.6015   87.4117   10.0964 C.ar    1  UNL1        0.1204
     38 N          62.6966   87.6494   11.0934 N.ar    1  UNL1       -0.3331
     39 H          63.3457   88.3894   11.0746 H       1  UNL1        0.1677
     40 C          63.8853   88.9940   13.9010 C.2     1  UNL1        0.2439
     41 O          63.0065   89.4519   12.7749 O.2     1  UNL1       -0.2731
     42 N          64.1162   87.5287   14.1240 N.am    1  UNL1       -0.2730
     43 C          64.9650   86.9241   15.2029 C.3     1  UNL1        0.0939
     44 C          64.9122   85.4325   15.0529 C.3     1  UNL1        0.0237
     45 C          64.0307   85.1153   13.8814 C.3     1  UNL1        0.0293
     46 C          63.5388   86.4108   13.3073 C.3     1  UNL1        0.1319
     47 C          64.5333   90.0013   14.8041 C.3     1  UNL1        0.1512
     48 C          65.9349   91.7775   13.5273 C.2     1  UNL1        0.4021
     49 O          64.6744   92.3786   12.9798 O.2     1  UNL1       -0.2264
     50 N          65.8644   90.5888   14.4395 N.am    1  UNL1       -0.2640
     51 H          66.6917   90.1942   14.7988 H       1  UNL1        0.1532
     52 C          68.2027   91.6047   12.2712 C.3     1  UNL1        0.2573
     53 O          67.2660   92.3650   13.1626 O.3     1  UNL1       -0.4306
     54 C          63.8501   90.4210   16.0718 C.3     1  UNL1        0.0270
     55 C          64.0794   91.7951   16.6279 C.3     1  UNL1        0.0022
     56 C          62.9375   89.4665   16.7834 C.3     1  UNL1        0.0022
@<TRIPOS>BOND
     1    52    53    1
     2    53    48    1
     3    48    49    2
     4    48    50   am
     5    47    50    1
     6    47    40    1
     7    40    41    2
     8    40    42   am
     9    42    43    1
    10    43    44    1
    11    44    45    1
    12    45    46    1
    13    46    34    1
    14    34    35   ar
    15    35    36   ar
    16    36    37   ar
    17    37    32    1
    18    32    33    3
    19    33    30    1
    20    30    31    3
    21    31     1    1
    22     1     2   ar
    23     2     3   ar
    24     3     4   ar
    25     4     7    1
    26     7     8   ar
    27     8     9   ar
    28     9    10   ar
    29    13    10    1
    30    13    14    1
    31    14    15    1
    32    15    16    1
    33    16    17    1
    34    17    18   am
    35    18    19    2
    36    18    20    1
    37    20    21    1
    38    21    22   am
    39    22    23    2
    40    22    25    1
    41    25    26    1
    42    20    27    1
    43    27    28    1
    44    27    29    1
    45    10    11   ar
    46     4     5   ar
    47     5     6   ar
    48    37    38   ar
    49    47    54    1
    50    54    55    1
    51    54    56    1
    52    46    42    1
    53    38    34   ar
    54     6     1   ar
    55    11     7   ar
    56    17    13    1
    57    50    51    1
    58    21    24    1
    59    11    12    1
    60    38    39    1
@<TRIPOS>MOLECULE
*****
 56 60 0 0 0
SMALL
GASTEIGER

@<TRIPOS>ATOM
      1 C          60.3917   89.9693    6.4762 C.ar    1  UNL1        0.0426
      2 C          61.2511   90.5210    7.5748 C.ar    1  UNL1        0.0083
      3 C          61.5644   89.6796    8.7764 C.ar    1  UNL1        0.0021
      4 C          61.0183   88.2863    8.8793 C.ar    1  UNL1        0.0172
      5 C          60.1589   87.7345    7.7807 C.ar    1  UNL1        0.0021
      6 C          59.8456   88.5760    6.5792 C.ar    1  UNL1        0.0083
      7 C          61.3316   87.4448   10.0809 C.ar    1  UNL1        0.0769
      8 C          60.5110   86.2981   10.5925 C.ar    1  UNL1        0.1171
      9 N          61.1927   85.7468   11.8096 N.ar    1  UNL1       -0.2279
     10 C          62.4346   86.5529   12.0503 C.ar    1  UNL1        0.1353
     11 N          62.5205   87.6023   10.9819 N.ar    1  UNL1       -0.3394
     12 H          63.2321   88.2761   10.8884 H       1  UNL1        0.1671
     13 C          63.4181   86.3459   13.1638 C.3     1  UNL1        0.1319
     14 C          63.9741   85.0280   13.6155 C.3     1  UNL1        0.0293
     15 C          64.9178   85.2881   14.7520 C.3     1  UNL1        0.0237
     16 C          64.9451   86.7668   15.0028 C.3     1  UNL1        0.0939
     17 N          64.0182   87.4205   14.0212 N.am    1  UNL1       -0.2730
     18 C          63.7403   88.8907   13.9156 C.2     1  UNL1        0.2439
     19 O          62.7840   89.4006   12.8785 O.2     1  UNL1       -0.2731
     20 C          64.4186   89.8511   14.8470 C.3     1  UNL1        0.1512
     21 N          65.7725   90.3986   14.5042 N.am    1  UNL1       -0.2640
     22 C          65.8931   91.5898   13.6006 C.2     1  UNL1        0.4021
     23 O          64.6598   92.2335   13.0398 O.2     1  UNL1       -0.2264
     24 H          66.5819   89.9760   14.8724 H       1  UNL1        0.1532
     25 O          67.2469   92.1372   13.2579 O.3     1  UNL1       -0.4306
     26 C          68.2239   92.4596   14.3495 C.3     1  UNL1        0.2573
     27 C          63.7432   90.2641   16.1210 C.3     1  UNL1        0.0270
     28 C          62.9349   89.2679   16.8984 C.3     1  UNL1        0.0022
     29 C          63.8759   91.6732   16.6176 C.3     1  UNL1        0.0022
     30 C          59.7650   91.6522    4.0731 C.1     1  UNL1       -0.0091
     31 C          60.0784   90.8108    5.2746 C.1     1  UNL1       -0.0512
     32 C          59.1384   93.3351    1.6699 C.1     1  UNL1       -0.0323
     33 C          59.4517   92.4937    2.8715 C.1     1  UNL1       -0.0077
     34 C          57.6212   95.2732   -1.3313 C.ar    1  UNL1        0.1358
     35 N          59.0646   95.6695   -1.4301 N.ar    1  UNL1       -0.2272
     36 C          59.8085   94.9918   -0.3178 C.ar    1  UNL1        0.1257
     37 C          58.8251   94.1765    0.4684 C.ar    1  UNL1        0.1204
     38 N          57.4732   94.3504   -0.1580 N.ar    1  UNL1       -0.3331
     39 H          56.6359   93.9323    0.1473 H       1  UNL1        0.1677
     40 C          57.1628   94.2885   -4.4087 C.2     1  UNL1        0.2439
     41 O          58.3528   93.6666   -3.7400 O.2     1  UNL1       -0.2731
     42 N          56.3087   95.2683   -3.6599 N.am    1  UNL1       -0.2730
     43 C          55.0939   95.9675   -4.1942 C.3     1  UNL1        0.0939
     44 C          54.5539   96.8522   -3.1098 C.3     1  UNL1        0.0237
     45 C          55.4349   96.6998   -1.9054 C.3     1  UNL1        0.0293
     46 C          56.5194   95.7209   -2.2454 C.3     1  UNL1        0.1319
     47 C          56.8267   93.9307   -5.8261 C.3     1  UNL1        0.1512
     48 C          55.8284   91.5323   -5.8005 C.2     1  UNL1        0.4021
     49 O          57.0993   91.0097   -5.1990 O.2     1  UNL1       -0.2264
     50 N          55.6921   92.9928   -6.1141 N.am    1  UNL1       -0.2640
     51 H          54.8580   93.3358   -6.5088 H       1  UNL1        0.1532
     52 C          54.5817   89.9438   -7.4354 C.3     1  UNL1        0.2573
     53 O          54.6938   90.5943   -6.0884 O.3     1  UNL1       -0.4306
     54 C          57.6254   94.5108   -6.9555 C.3     1  UNL1        0.0270
     55 C          57.2245   95.8233   -7.5610 C.3     1  UNL1        0.0022
     56 C          58.8251   93.7784   -7.4795 C.3     1  UNL1        0.0022
@<TRIPOS>BOND
     1    52    53    1
     2    53    48    1
     3    48    49    2
     4    48    50   am
     5    47    50    1
     6    47    40    1
     7    40    41    2
     8    40    42   am
     9    42    43    1
    10    43    44    1
    11    44    45    1
    12    45    46    1
    13    46    34    1
    14    34    35   ar
    15    35    36   ar
    16    36    37   ar
    17    37    32    1
    18    32    33    3
    19    33    30    1
    20    30    31    3
    21    31     1    1
    22     1     2   ar
    23     2     3   ar
    24     3     4   ar
    25     4     7    1
    26     7     8   ar
    27     8     9   ar
    28     9    10   ar
    29    13    10    1
    30    13    14    1
    31    14    15    1
    32    15    16    1
    33    16    17    1
    34    17    18   am
    35    18    19    2
    36    18    20    1
    37    20    21    1
    38    21    22   am
    39    22    23    2
    40    22    25    1
    41    25    26    1
    42    20    27    1
    43    27    28    1
    44    27    29    1
    45    10    11   ar
    46     4     5   ar
    47     5     6   ar
    48    37    38   ar
    49    47    54    1
    50    54    55    1
    51    54    56    1
    52    46    42    1
    53    38    34   ar
    54     6     1   ar
    55    11     7   ar
    56    17    13    1
    57    50    51    1
    58    21    24    1
    59    11    12    1
    60    38    39    1
@<TRIPOS>MOLECULE
*****
 56 60 0 0 0
SMALL
GASTEIGER

@<TRIPOS>ATOM
      1 C          60.0904   90.4717    5.9343 C.ar    1  UNL1        0.0426
      2 C          61.2196   90.8474    6.8474 C.ar    1  UNL1        0.0083
      3 C          61.4495   90.0755    8.1128 C.ar    1  UNL1        0.0021
      4 C          60.5501   88.9280    8.4652 C.ar    1  UNL1        0.0172
      5 C          59.4209   88.5522    7.5522 C.ar    1  UNL1        0.0021
      6 C          59.1911   89.3241    6.2867 C.ar    1  UNL1        0.0083
      7 C          60.7800   88.1561    9.7307 C.ar    1  UNL1        0.0769
      8 C          59.7388   87.4058   10.5073 C.ar    1  UNL1        0.1171
      9 N          60.4066   86.7850   11.6984 N.ar    1  UNL1       -0.2279
     10 C          61.8606   87.1517   11.6579 C.ar    1  UNL1        0.1353
     11 N          62.0913   87.9990   10.4418 N.ar    1  UNL1       -0.3394
     12 H          62.9523   88.3844   10.1599 H       1  UNL1        0.1671
     13 C          62.9012   86.7428   12.6579 C.3     1  UNL1        0.1319
     14 C          63.3880   85.3452   12.9024 C.3     1  UNL1        0.0293
     15 C          64.4253   85.3983   13.9846 C.3     1  UNL1        0.0237
     16 C          64.5796   86.8287   14.4089 C.3     1  UNL1        0.0939
     17 N          63.6377   87.6596   13.5889 N.am    1  UNL1       -0.2730
     18 C          63.4630   89.1464   13.6835 C.2     1  UNL1        0.2439
     19 O          62.4772   89.8438   12.7935 O.2     1  UNL1       -0.2731
     20 C          64.2739   89.9358   14.6679 C.3     1  UNL1        0.1512
     21 N          65.6305   90.4471   14.2830 N.am    1  UNL1       -0.2640
     22 C          65.7548   91.6607   13.4102 C.2     1  UNL1        0.4021
     23 O          64.5225   92.3630   12.9223 O.2     1  UNL1       -0.2264
     24 H          66.4394   89.9862   14.6033 H       1  UNL1        0.1532
     25 O          67.1115   92.1720   13.0253 O.3     1  UNL1       -0.4306
     26 C          68.2441   92.1059   14.0066 C.3     1  UNL1        0.2573
     27 C          63.7283   90.2140   16.0372 C.3     1  UNL1        0.0270
     28 C          63.9140   91.5669   16.6579 C.3     1  UNL1        0.0022
     29 C          62.9970   89.1395   16.7857 C.3     1  UNL1        0.0022
     30 C          59.6307   92.0153    3.4033 C.1     1  UNL1       -0.0091
     31 C          59.8606   91.2435    4.6688 C.1     1  UNL1       -0.0512
     32 C          59.1710   93.5589    0.8723 C.1     1  UNL1       -0.0323
     33 C          59.4008   92.7871    2.1378 C.1     1  UNL1       -0.0077
     34 C          58.9533   94.9911   -2.7286 C.ar    1  UNL1        0.1358
     35 N          58.2216   96.0458   -1.9524 N.ar    1  UNL1       -0.2272
     36 C          58.2141   95.6376   -0.5091 C.ar    1  UNL1        0.1257
     37 C          58.9411   94.3307   -0.3931 C.ar    1  UNL1        0.1204
     38 N          59.3980   93.9312   -1.7649 N.ar    1  UNL1       -0.3331
     39 H          59.9014   93.1163   -1.9927 H       1  UNL1        0.1677
     40 C          61.8617   94.7785   -4.1935 C.2     1  UNL1        0.2439
     41 O          61.9295   94.7483   -2.6954 O.2     1  UNL1       -0.2731
     42 N          60.5344   94.8979   -4.8819 N.am    1  UNL1       -0.2730
     43 C          60.3108   94.9406   -6.3646 C.3     1  UNL1        0.0939
     44 C          58.8357   95.0646   -6.6075 C.3     1  UNL1        0.0237
     45 C          58.1477   95.0987   -5.2750 C.3     1  UNL1        0.0293
     46 C          59.1975   94.9956   -4.2086 C.3     1  UNL1        0.1319
     47 C          63.1212   94.6893   -5.0033 C.3     1  UNL1        0.1512
     48 C          64.2669   92.5559   -5.9443 C.2     1  UNL1        0.4021
     49 O          65.1548   92.5001   -4.7366 O.2     1  UNL1       -0.2264
     50 N          63.2501   93.6505   -6.0777 N.am    1  UNL1       -0.2640
     51 H          62.6673   93.6872   -6.8703 H       1  UNL1        0.1532
     52 C          65.7058   90.8183   -7.2331 C.3     1  UNL1        0.2573
     53 O          64.3959   91.5170   -7.0186 O.3     1  UNL1       -0.4306
     54 C          64.2517   95.6390   -4.7387 C.3     1  UNL1        0.0270
     55 C          64.8254   96.4533   -5.8603 C.3     1  UNL1        0.0022
     56 C          64.8087   95.7743   -3.3525 C.3     1  UNL1        0.0022
@<TRIPOS>BOND
     1    52    53    1
     2    53    48    1
     3    48    49    2
     4    48    50   am
     5    47    50    1
     6    47    40    1
     7    40    41    2
     8    40    42   am
     9    42    43    1
    10    43    44    1
    11    44    45    1
    12    45    46    1
    13    46    34    1
    14    34    35   ar
    15    35    36   ar
    16    36    37   ar
    17    37    32    1
    18    32    33    3
    19    33    30    1
    20    30    31    3
    21    31     1    1
    22     1     2   ar
    23     2     3   ar
    24     3     4   ar
    25     4     7    1
    26     7     8   ar
    27     8     9   ar
    28     9    10   ar
    29    13    10    1
    30    13    14    1
    31    14    15    1
    32    15    16    1
    33    16    17    1
    34    17    18   am
    35    18    19    2
    36    18    20    1
    37    20    21    1
    38    21    22   am
    39    22    23    2
    40    22    25    1
    41    25    26    1
    42    20    27    1
    43    27    28    1
    44    27    29    1
    45    10    11   ar
    46     4     5   ar
    47     5     6   ar
    48    37    38   ar
    49    47    54    1
    50    54    55    1
    51    54    56    1
    52    46    42    1
    53    38    34   ar
    54     6     1   ar
    55    11     7   ar
    56    17    13    1
    57    50    51    1
    58    21    24    1
    59    11    12    1
    60    38    39    1
@<TRIPOS>MOLECULE
*****
 56 60 0 0 0
SMALL
GASTEIGER

@<TRIPOS>ATOM
      1 C          60.1539   90.4667    5.9827 C.ar    1  UNL1        0.0426
      2 C          59.2915   89.2784    6.2894 C.ar    1  UNL1        0.0083
      3 C          59.5205   88.4894    7.5443 C.ar    1  UNL1        0.0021
      4 C          60.6120   88.8888    8.4926 C.ar    1  UNL1        0.0172
      5 C          61.4744   90.0770    8.1859 C.ar    1  UNL1        0.0021
      6 C          61.2454   90.8660    6.9309 C.ar    1  UNL1        0.0083
      7 C          60.8410   88.0997    9.7477 C.ar    1  UNL1        0.0769
      8 C          59.8094   87.3002   10.4870 C.ar    1  UNL1        0.1171
      9 N          60.4725   86.6780   11.6800 N.ar    1  UNL1       -0.2279
     10 C          61.9140   87.0931   11.6779 C.ar    1  UNL1        0.1353
     11 N          62.1417   87.9717   10.4837 N.ar    1  UNL1       -0.3394
     12 H          62.9950   88.3908   10.2278 H       1  UNL1        0.1671
     13 C          62.9465   86.6987   12.6920 C.3     1  UNL1        0.1319
     14 C          63.4302   85.3046   12.9615 C.3     1  UNL1        0.0293
     15 C          64.4592   85.3735   14.0507 C.3     1  UNL1        0.0237
     16 C          64.6115   86.8101   14.4544 C.3     1  UNL1        0.0939
     17 N          63.6766   87.6290   13.6147 N.am    1  UNL1       -0.2730
     18 C          63.5023   89.1172   13.6852 C.2     1  UNL1        0.2439
     19 O          62.5240   89.8017   12.7772 O.2     1  UNL1       -0.2731
     20 C          64.3063   89.9210   14.6638 C.3     1  UNL1        0.1512
     21 N          65.6654   90.4273   14.2808 N.am    1  UNL1       -0.2640
     22 C          65.7959   91.6562   13.4307 C.2     1  UNL1        0.4021
     23 O          64.5672   92.3788   12.9635 O.2     1  UNL1       -0.2264
     24 H          66.4718   89.9530   14.5874 H       1  UNL1        0.1532
     25 O          67.1549   92.1624   13.0477 O.3     1  UNL1       -0.4306
     26 C          68.3084   92.0033   13.9933 C.3     1  UNL1        0.2573
     27 C          63.7513   90.2185   16.0251 C.3     1  UNL1        0.0270
     28 C          63.0244   89.1512   16.7884 C.3     1  UNL1        0.0022
     29 C          63.9232   91.5833   16.6233 C.3     1  UNL1        0.0022
     30 C          59.6959   92.0448    3.4727 C.1     1  UNL1       -0.0091
     31 C          59.9249   91.2557    4.7276 C.1     1  UNL1       -0.0512
     32 C          59.2380   93.6228    0.9627 C.1     1  UNL1       -0.0323
     33 C          59.4669   92.8338    2.2176 C.1     1  UNL1       -0.0077
     34 C          58.9080   95.0495   -2.6319 C.ar    1  UNL1        0.1358
     35 N          58.4052   96.2027   -1.8150 N.ar    1  UNL1       -0.2272
     36 C          58.4676   95.8087   -0.3691 C.ar    1  UNL1        0.1257
     37 C          59.0090   94.4119   -0.2923 C.ar    1  UNL1        0.1204
     38 N          59.2811   93.9427   -1.6908 N.ar    1  UNL1       -0.3331
     39 H          59.6414   93.0628   -1.9461 H       1  UNL1        0.1677
     40 C          56.4406   94.6332   -4.7268 C.2     1  UNL1        0.2439
     41 O          56.0247   94.6287   -3.2857 O.2     1  UNL1       -0.2731
     42 N          57.8841   94.8187   -5.0902 N.am    1  UNL1       -0.2730
     43 C          58.4469   94.8453   -6.4804 C.3     1  UNL1        0.0939
     44 C          59.9289   95.0532   -6.3766 C.3     1  UNL1        0.0237
     45 C          60.2819   95.1549   -4.9223 C.3     1  UNL1        0.0293
     46 C          59.0182   95.0100   -4.1273 C.3     1  UNL1        0.1319
     47 C          55.4132   94.4524   -5.8047 C.3     1  UNL1        0.1512
     48 C          55.6663   91.8675   -5.8665 C.2     1  UNL1        0.4021
     49 O          56.0743   91.8729   -4.4231 O.2     1  UNL1       -0.2264
     50 N          55.3358   93.1573   -6.5573 N.am    1  UNL1       -0.2640
     51 H          55.0680   93.1537   -7.5047 H       1  UNL1        0.1532
     52 C          54.3564   90.2333   -7.4040 C.3     1  UNL1        0.2573
     53 O          55.5890   90.5723   -6.6191 O.3     1  UNL1       -0.4306
     54 C          54.4632   95.5668   -6.1297 C.3     1  UNL1        0.0270
     55 C          54.5863   96.3015   -7.4316 C.3     1  UNL1        0.0022
     56 C          53.3900   95.9464   -5.1528 C.3     1  UNL1        0.0022
@<TRIPOS>BOND
     1    52    53    1
     2    53    48    1
     3    48    49    2
     4    48    50   am
     5    47    50    1
     6    47    40    1
     7    40    41    2
     8    40    42   am
     9    42    43    1
    10    43    44    1
    11    44    45    1
    12    45    46    1
    13    46    34    1
    14    34    35   ar
    15    35    36   ar
    16    36    37   ar
    17    37    32    1
    18    32    33    3
    19    33    30    1
    20    30    31    3
    21    31     1    1
    22     1     2   ar
    23     2     3   ar
    24     3     4   ar
    25     4     7    1
    26     7     8   ar
    27     8     9   ar
    28     9    10   ar
    29    13    10    1
    30    13    14    1
    31    14    15    1
    32    15    16    1
    33    16    17    1
    34    17    18   am
    35    18    19    2
    36    18    20    1
    37    20    21    1
    38    21    22   am
    39    22    23    2
    40    22    25    1
    41    25    26    1
    42    20    27    1
    43    27    28    1
    44    27    29    1
    45    10    11   ar
    46     4     5   ar
    47     5     6   ar
    48    37    38   ar
    49    47    54    1
    50    54    55    1
    51    54    56    1
    52    46    42    1
    53    38    34   ar
    54     6     1   ar
    55    11     7   ar
    56    17    13    1
    57    50    51    1
    58    21    24    1
    59    11    12    1
    60    38    39    1
@<TRIPOS>MOLECULE
*****
 56 60 0 0 0
SMALL
GASTEIGER

@<TRIPOS>ATOM
      1 C          60.0834   90.4874    5.9224 C.ar    1  UNL1        0.0426
      2 C          61.2149   90.8625    6.8327 C.ar    1  UNL1        0.0083
      3 C          61.4445   90.0934    8.0999 C.ar    1  UNL1        0.0021
      4 C          60.5426   88.9493    8.4567 C.ar    1  UNL1        0.0172
      5 C          59.4110   88.5741    7.5464 C.ar    1  UNL1        0.0021
      6 C          59.1814   89.3432    6.2792 C.ar    1  UNL1        0.0083
      7 C          60.7722   88.1802    9.7240 C.ar    1  UNL1        0.0769
      8 C          59.7255   87.4561   10.5179 C.ar    1  UNL1        0.1171
      9 N          60.3952   86.8286   11.7043 N.ar    1  UNL1       -0.2279
     10 C          61.8558   87.1649   11.6437 C.ar    1  UNL1        0.1353
     11 N          62.0888   88.0002   10.4198 N.ar    1  UNL1       -0.3394
     12 H          62.9539   88.3661   10.1250 H       1  UNL1        0.1671
     13 C          62.9001   86.7404   12.6334 C.3     1  UNL1        0.1319
     14 C          63.3908   85.3398   12.8512 C.3     1  UNL1        0.0293
     15 C          64.4309   85.3757   13.9313 C.3     1  UNL1        0.0237
     16 C          64.5832   86.7986   14.3811 C.3     1  UNL1        0.0939
     17 N          63.6370   87.6420   13.5789 N.am    1  UNL1       -0.2730
     18 C          63.4591   89.1264   13.7008 C.2     1  UNL1        0.2439
     19 O          62.4693   89.8374   12.8263 O.2     1  UNL1       -0.2731
     20 C          64.2709   89.8998   14.6972 C.3     1  UNL1        0.1512
     21 N          65.6465   90.3762   14.3356 N.am    1  UNL1       -0.2640
     22 C          65.8177   91.6166   13.5097 C.2     1  UNL1        0.4021
     23 O          64.6132   92.3806   13.0455 O.2     1  UNL1       -0.2264
     24 H          66.4371   89.8747   14.6403 H       1  UNL1        0.1532
     25 O          67.1933   92.0930   13.1481 O.3     1  UNL1       -0.4306
     26 C          68.2336   92.2611   14.2155 C.3     1  UNL1        0.2573
     27 C          63.7072   90.1968   16.0551 C.3     1  UNL1        0.0270
     28 C          63.0023   89.1206   16.8264 C.3     1  UNL1        0.0022
     29 C          63.8484   91.5700   16.6418 C.3     1  UNL1        0.0022
     30 C          59.6241   92.0254    3.3879 C.1     1  UNL1       -0.0091
     31 C          59.8537   91.2564    4.6551 C.1     1  UNL1       -0.0512
     32 C          59.1648   93.5635    0.8534 C.1     1  UNL1       -0.0323
     33 C          59.3945   92.7945    2.1206 C.1     1  UNL1       -0.0077
     34 C          58.9339   94.9801   -2.7529 C.ar    1  UNL1        0.1358
     35 N          58.2294   96.0518   -1.9747 N.ar    1  UNL1       -0.2272
     36 C          58.2302   95.6515   -0.5291 C.ar    1  UNL1        0.1257
     37 C          58.9351   94.3325   -0.4138 C.ar    1  UNL1        0.1204
     38 N          59.3700   93.9176   -1.7881 N.ar    1  UNL1       -0.3331
     39 H          59.8563   93.0926   -2.0167 H       1  UNL1        0.1677
     40 C          56.8872   93.7969   -5.0024 C.2     1  UNL1        0.2439
     41 O          56.3877   93.6658   -3.5941 O.2     1  UNL1       -0.2731
     42 N          58.2213   94.4285   -5.2694 N.am    1  UNL1       -0.2730
     43 C          58.8489   94.6271   -6.6172 C.3     1  UNL1        0.0939
     44 C          60.1775   95.2938   -6.4161 C.3     1  UNL1        0.0237
     45 C          60.3710   95.5071   -4.9441 C.3     1  UNL1        0.0293
     46 C          59.1621   94.9724   -4.2354 C.3     1  UNL1        0.1319
     47 C          56.0525   93.2963   -6.1439 C.3     1  UNL1        0.1512
     48 C          54.4052   95.3033   -6.2338 C.2     1  UNL1        0.4021
     49 O          54.4331   95.3932   -4.7367 O.2     1  UNL1       -0.2264
     50 N          55.2150   94.2548   -6.9374 N.am    1  UNL1       -0.2640
     51 H          55.1967   94.1958   -7.9200 H       1  UNL1        0.1532
     52 C          52.1193   96.4522   -6.6863 C.3     1  UNL1        0.2573
     53 O          53.5676   96.2618   -7.0272 O.3     1  UNL1       -0.4306
     54 C          56.0556   91.8372   -6.4918 C.3     1  UNL1        0.0270
     55 C          57.1877   91.2583   -7.2876 C.3     1  UNL1        0.0022
     56 C          54.9265   90.9570   -6.0439 C.3     1  UNL1        0.0022
@<TRIPOS>BOND
     1    52    53    1
     2    53    48    1
     3    48    49    2
     4    48    50   am
     5    47    50    1
     6    47    40    1
     7    40    41    2
     8    40    42   am
     9    42    43    1
    10    43    44    1
    11    44    45    1
    12    45    46    1
    13    46    34    1
    14    34    35   ar
    15    35    36   ar
    16    36    37   ar
    17    37    32    1
    18    32    33    3
    19    33    30    1
    20    30    31    3
    21    31     1    1
    22     1     2   ar
    23     2     3   ar
    24     3     4   ar
    25     4     7    1
    26     7     8   ar
    27     8     9   ar
    28     9    10   ar
    29    13    10    1
    30    13    14    1
    31    14    15    1
    32    15    16    1
    33    16    17    1
    34    17    18   am
    35    18    19    2
    36    18    20    1
    37    20    21    1
    38    21    22   am
    39    22    23    2
    40    22    25    1
    41    25    26    1
    42    20    27    1
    43    27    28    1
    44    27    29    1
    45    10    11   ar
    46     4     5   ar
    47     5     6   ar
    48    37    38   ar
    49    47    54    1
    50    54    55    1
    51    54    56    1
    52    46    42    1
    53    38    34   ar
    54     6     1   ar
    55    11     7   ar
    56    17    13    1
    57    50    51    1
    58    21    24    1
    59    11    12    1
    60    38    39    1
@<TRIPOS>MOLECULE
*****
 56 60 0 0 0
SMALL
GASTEIGER

@<TRIPOS>ATOM
      1 C          60.9470   92.5332    2.1107 C.ar    1  UNL1        0.0426
      2 C          62.1730   92.4881    1.2478 C.ar    1  UNL1        0.0083
      3 C          62.1674   93.1499   -0.0983 C.ar    1  UNL1        0.0021
      4 C          60.9358   93.8567   -0.5815 C.ar    1  UNL1        0.0172
      5 C          59.7097   93.9018    0.2815 C.ar    1  UNL1        0.0021
      6 C          59.7153   93.2401    1.6276 C.ar    1  UNL1        0.0083
      7 C          60.9302   94.5184   -1.9277 C.ar    1  UNL1        0.0769
      8 C          62.1128   95.1409   -2.6090 C.ar    1  UNL1        0.1171
      9 N          61.6546   95.6810   -3.9312 N.ar    1  UNL1       -0.2279
     10 C          60.1889   95.3924   -4.0671 C.ar    1  UNL1        0.1353
     11 N          59.7412   94.6739   -2.8288 N.ar    1  UNL1       -0.3394
     12 H          58.8274   94.3596   -2.6406 H       1  UNL1        0.1671
     13 C          59.3229   95.7582   -5.2360 C.3     1  UNL1        0.1319
     14 C          59.6045   96.8381   -6.2382 C.3     1  UNL1        0.0293
     15 C          58.4789   96.8555   -7.2295 C.3     1  UNL1        0.0237
     16 C          57.5016   95.7864   -6.8399 C.3     1  UNL1        0.0939
     17 N          58.0232   95.1082   -5.6079 N.am    1  UNL1       -0.2730
     18 C          57.3613   93.9784   -4.8762 C.2     1  UNL1        0.2439
     19 O          58.0052   93.3984   -3.6518 O.2     1  UNL1       -0.2731
     20 C          56.0555   93.4285   -5.3688 C.3     1  UNL1        0.1512
     21 N          54.8863   94.3450   -5.5761 N.am    1  UNL1       -0.2640
     22 C          54.5237   95.3485   -4.5218 C.2     1  UNL1        0.4021
     23 O          55.3303   95.4354   -3.2602 O.2     1  UNL1       -0.2264
     24 H          54.3569   94.2880   -6.4042 H       1  UNL1        0.1532
     25 O          53.3545   96.2650   -4.7292 O.3     1  UNL1       -0.4306
     26 C          52.2633   96.3328   -3.7023 C.3     1  UNL1        0.2573
     27 C          55.9189   91.9622   -5.6540 C.3     1  UNL1        0.0270
     28 C          56.0863   91.4518   -7.0545 C.3     1  UNL1        0.0022
     29 C          55.6150   91.0064   -4.5387 C.3     1  UNL1        0.0022
     30 C          60.9581   91.2098    4.8031 C.1     1  UNL1       -0.0091
     31 C          60.9525   91.8715    3.4569 C.1     1  UNL1       -0.0512
     32 C          60.9692   89.8864    7.4954 C.1     1  UNL1       -0.0323
     33 C          60.9637   90.5481    6.1492 C.1     1  UNL1       -0.0077
     34 C          61.7181   88.3421   10.9767 C.ar    1  UNL1        0.1358
     35 N          60.2483   88.0709   10.8494 N.ar    1  UNL1       -0.2272
     36 C          59.7889   88.6164    9.5297 C.ar    1  UNL1        0.1257
     37 C          60.9747   89.2247    8.8415 C.ar    1  UNL1        0.1204
     38 N          62.1670   89.0552    9.7358 N.ar    1  UNL1       -0.3331
     39 H          63.0834   89.3587    9.5422 H       1  UNL1        0.1677
     40 C          62.4033   85.3057   11.9568 C.2     1  UNL1        0.2439
     41 O          61.5037   85.3716   10.7583 O.2     1  UNL1       -0.2731
     42 N          62.9014   86.5705   12.5910 N.am    1  UNL1       -0.2730
     43 C          63.8019   86.6617   13.7872 C.3     1  UNL1        0.0939
     44 C          64.0435   88.1137   14.0759 C.3     1  UNL1        0.0237
     45 C          63.2923   88.9199   13.0582 C.3     1  UNL1        0.0293
     46 C          62.5865   87.9662   12.1406 C.3     1  UNL1        0.1319
     47 C          62.8049   83.9752   12.5211 C.3     1  UNL1        0.1512
     48 C          63.7827   82.3912   10.7087 C.2     1  UNL1        0.4021
     49 O          64.9842   83.2800   10.5802 O.2     1  UNL1       -0.2264
     50 N          62.6930   82.7388   11.6791 N.am    1  UNL1       -0.2640
     51 H          61.9044   82.1555   11.7635 H       1  UNL1        0.1532
     52 C          62.7518   80.0447   10.2826 C.3     1  UNL1        0.2573
     53 O          63.6708   81.1549    9.8667 O.3     1  UNL1       -0.4306
     54 C          63.3184   83.8811   13.9273 C.3     1  UNL1        0.0270
     55 C          64.7926   83.9565   14.1941 C.3     1  UNL1        0.0022
     56 C          62.3577   83.7115   15.0668 C.3     1  UNL1        0.0022
@<TRIPOS>BOND
     1    52    53    1
     2    53    48    1
     3    48    49    2
     4    48    50   am
     5    47    50    1
     6    47    40    1
     7    40    41    2
     8    40    42   am
     9    42    43    1
    10    43    44    1
    11    44    45    1
    12    45    46    1
    13    46    34    1
    14    34    35   ar
    15    35    36   ar
    16    36    37   ar
    17    37    32    1
    18    32    33    3
    19    33    30    1
    20    30    31    3
    21    31     1    1
    22     1     2   ar
    23     2     3   ar
    24     3     4   ar
    25     4     7    1
    26     7     8   ar
    27     8     9   ar
    28     9    10   ar
    29    13    10    1
    30    13    14    1
    31    14    15    1
    32    15    16    1
    33    16    17    1
    34    17    18   am
    35    18    19    2
    36    18    20    1
    37    20    21    1
    38    21    22   am
    39    22    23    2
    40    22    25    1
    41    25    26    1
    42    20    27    1
    43    27    28    1
    44    27    29    1
    45    10    11   ar
    46     4     5   ar
    47     5     6   ar
    48    37    38   ar
    49    47    54    1
    50    54    55    1
    51    54    56    1
    52    46    42    1
    53    38    34   ar
    54     6     1   ar
    55    11     7   ar
    56    17    13    1
    57    50    51    1
    58    21    24    1
    59    11    12    1
    60    38    39    1
@<TRIPOS>MOLECULE
*****
 56 60 0 0 0
SMALL
GASTEIGER

@<TRIPOS>ATOM
      1 C          60.2329   91.5436    4.3325 C.ar    1  UNL1        0.0426
      2 C          61.3433   91.9976    3.4321 C.ar    1  UNL1        0.0083
      3 C          61.0493   92.9161    2.2833 C.ar    1  UNL1        0.0021
      4 C          59.6449   93.3806    2.0348 C.ar    1  UNL1        0.0172
      5 C          58.5344   92.9266    2.9352 C.ar    1  UNL1        0.0021
      6 C          58.8284   92.0082    4.0841 C.ar    1  UNL1        0.0083
      7 C          59.3509   94.2991    0.8859 C.ar    1  UNL1        0.0769
      8 C          60.2198   95.4274    0.4145 C.ar    1  UNL1        0.1171
      9 N          59.5424   96.0762   -0.7561 N.ar    1  UNL1       -0.2279
     10 C          58.2549   95.3489   -1.0081 C.ar    1  UNL1        0.1353
     11 N          58.1366   94.2506    0.0067 N.ar    1  UNL1       -0.3394
     12 H          57.3925   93.6104    0.0824 H       1  UNL1        0.1671
     13 C          57.2603   95.6645   -2.0857 C.3     1  UNL1        0.1319
     14 C          55.9942   96.4503   -1.9143 C.3     1  UNL1        0.0293
     15 C          55.3086   96.5212   -3.2465 C.3     1  UNL1        0.0237
     16 C          56.1511   95.7792   -4.2414 C.3     1  UNL1        0.0939
     17 N          57.3572   95.2498   -3.5239 N.am    1  UNL1       -0.2730
     18 C          58.4658   94.4466   -4.1371 C.2     1  UNL1        0.2439
     19 O          59.6138   93.9836   -3.2899 O.2     1  UNL1       -0.2731
     20 C          58.4264   94.1063   -5.5975 C.3     1  UNL1        0.1512
     21 N          59.1322   94.9813   -6.5906 N.am    1  UNL1       -0.2640
     22 C          60.6282   95.0880   -6.5662 C.2     1  UNL1        0.4021
     23 O          61.4184   94.3198   -5.5486 O.2     1  UNL1       -0.2264
     24 H          58.6136   95.4854   -7.2585 H       1  UNL1        0.1532
     25 O          61.3340   95.9630   -7.5593 O.3     1  UNL1       -0.4306
     26 C          62.8285   96.0863   -7.5214 C.3     1  UNL1        0.2573
     27 C          57.6813   92.8912   -6.0647 C.3     1  UNL1        0.0270
     28 C          57.0102   91.9936   -5.0678 C.3     1  UNL1        0.0022
     29 C          57.6074   92.5737   -7.5288 C.3     1  UNL1        0.0022
     30 C          60.8208   89.7067    6.6304 C.1     1  UNL1       -0.0091
     31 C          60.5269   90.6251    5.4815 C.1     1  UNL1       -0.0512
     32 C          61.4086   87.8697    8.9282 C.1     1  UNL1       -0.0323
     33 C          61.1147   88.7882    7.7793 C.1     1  UNL1       -0.0077
     34 C          62.6356   86.0411   12.1245 C.ar    1  UNL1        0.1358
     35 N          61.6740   85.0345   11.5657 N.ar    1  UNL1       -0.2272
     36 C          61.0974   85.5970   10.3004 C.ar    1  UNL1        0.1257
     37 C          61.7026   86.9512   10.0771 C.ar    1  UNL1        0.1204
     38 N          62.6532   87.2257   11.2044 N.ar    1  UNL1       -0.3331
     39 H          63.1939   88.0403   11.3202 H       1  UNL1        0.1677
     40 C          63.7775   88.4739   13.9757 C.2     1  UNL1        0.2439
     41 O          63.0057   88.9323   12.7740 O.2     1  UNL1       -0.2731
     42 N          63.9635   87.0080   14.2333 N.am    1  UNL1       -0.2730
     43 C          64.7069   86.4028   15.3870 C.3     1  UNL1        0.0939
     44 C          64.6415   84.9105   15.2490 C.3     1  UNL1        0.0237
     45 C          63.8577   84.5934   14.0101 C.3     1  UNL1        0.0293
     46 C          63.4386   85.8897   13.3823 C.3     1  UNL1        0.1319
     47 C          64.3634   89.4815   14.9200 C.3     1  UNL1        0.1512
     48 C          65.6908   91.3948   13.7679 C.2     1  UNL1        0.4021
     49 O          64.4059   91.9842   13.2665 O.2     1  UNL1       -0.2264
     50 N          65.6696   90.1434   14.5947 N.am    1  UNL1       -0.2640
     51 H          66.5129   89.7564   14.9238 H       1  UNL1        0.1532
     52 C          68.0461   92.2079   14.5039 C.3     1  UNL1        0.2573
     53 O          66.9969   92.0567   13.4426 O.3     1  UNL1       -0.4306
     54 C          63.6431   89.8272   16.1894 C.3     1  UNL1        0.0270
     55 C          63.0125   88.7435   17.0129 C.3     1  UNL1        0.0022
     56 C          63.5533   91.2566   16.6356 C.3     1  UNL1        0.0022
@<TRIPOS>BOND
     1    52    53    1
     2    53    48    1
     3    48    49    2
     4    48    50   am
     5    47    50    1
     6    47    40    1
     7    40    41    2
     8    40    42   am
     9    42    43    1
    10    43    44    1
    11    44    45    1
    12    45    46    1
    13    46    34    1
    14    34    35   ar
    15    35    36   ar
    16    36    37   ar
    17    37    32    1
    18    32    33    3
    19    33    30    1
    20    30    31    3
    21    31     1    1
    22     1     2   ar
    23     2     3   ar
    24     3     4   ar
    25     4     7    1
    26     7     8   ar
    27     8     9   ar
    28     9    10   ar
    29    13    10    1
    30    13    14    1
    31    14    15    1
    32    15    16    1
    33    16    17    1
    34    17    18   am
    35    18    19    2
    36    18    20    1
    37    20    21    1
    38    21    22   am
    39    22    23    2
    40    22    25    1
    41    25    26    1
    42    20    27    1
    43    27    28    1
    44    27    29    1
    45    10    11   ar
    46     4     5   ar
    47     5     6   ar
    48    37    38   ar
    49    47    54    1
    50    54    55    1
    51    54    56    1
    52    46    42    1
    53    38    34   ar
    54     6     1   ar
    55    11     7   ar
    56    17    13    1
    57    50    51    1
    58    21    24    1
    59    11    12    1
    60    38    39    1
