@<TRIPOS>MOLECULE
*****
 31 33 0 0 0
SMALL
GASTEIGER

@<TRIPOS>ATOM
      1 C          62.4210   89.8977   10.9120 C.ar    1  UNL1        0.1042
      2 C          63.2713   91.1268   11.0399 C.ar    1  UNL1        0.0335
      3 C          64.2338   91.2573   12.1830 C.ar    1  UNL1        0.1261
      4 C          64.3460   90.1588   13.1982 C.ar    1  UNL1        0.0234
      5 C          63.4957   88.9298   13.0703 C.ar    1  UNL1        0.0396
      6 C          62.5333   88.7992   11.9272 C.ar    1  UNL1        0.1549
      7 S          65.0840   92.4865   12.3108 S.O2    1  UNL1        0.0747
      8 O          65.1770   92.2681   13.7919 O.2     1  UNL1       -0.1499
      9 O          64.9911   92.7049   10.8298 O.2     1  UNL1       -0.1499
     10 N          65.9343   93.7156   12.4387 N.pl3   1  UNL1       -0.1989
     11 H          66.2014   94.0388   13.3295 H       1  UNL1        0.1753
     12 C          66.3775   94.4522   11.2095 C.ar    1  UNL1        0.1472
     13 C          65.7213   95.7477   10.8340 C.ar    1  UNL1        0.0379
     14 C          66.1645   96.4843    9.6048 C.ar    1  UNL1        0.0342
     15 C          67.2640   95.9254    8.7511 C.ar    1  UNL1        0.1593
     16 F          67.7072   96.6620    7.5219 F       1  UNL1       -0.2025
     17 C          67.9202   94.6299    9.1266 C.ar    1  UNL1        0.1299
     18 N          67.4769   93.8933   10.3558 N.ar    1  UNL1       -0.2256
     19 N          60.4961   89.6365    8.6259 N.1     1  UNL1       -0.1907
     20 C          61.4586   89.7671    9.7689 C.1     1  UNL1        0.1035
     21 O          61.6830   87.5700   11.7994 O.3     1  UNL1       -0.4528
     22 C          62.3088   86.2616   11.4171 C.ar    1  UNL1        0.1462
     23 C          62.4303   85.8824    9.9708 C.ar    1  UNL1        0.0373
     24 C          63.0562   84.5739    9.5886 C.ar    1  UNL1        0.0021
     25 C          63.5606   83.6446   10.6525 C.ar    1  UNL1        0.0177
     26 C          63.4391   84.0237   12.0986 C.ar    1  UNL1        0.0591
     27 CL         63.9435   83.0943   13.1625 Cl      1  UNL1       -0.0824
     28 C          62.8132   85.3322   12.4810 C.ar    1  UNL1        0.0486
     29 C          64.1864   82.3361   10.2702 C.3     1  UNL1        0.1644
     30 O          63.3604   81.0840   10.2606 O.3     1  UNL1       -0.3772
     31 H          63.0828   80.8729   11.1657 H       1  UNL1        0.2109
@<TRIPOS>BOND
     1    19    20    3
     2    20     1    1
     3     1     2   ar
     4     2     3   ar
     5     3     7    1
     6     7     8    2
     7     7     9    2
     8     7    10    1
     9    10    12    1
    10    12    13   ar
    11    13    14   ar
    12    14    15   ar
    13    15    16    1
    14    15    17   ar
    15    17    18   ar
    16     3     4   ar
    17     4     5   ar
    18     5     6   ar
    19     6    21    1
    20    21    22    1
    21    22    23   ar
    22    23    24   ar
    23    24    25   ar
    24    25    29    1
    25    29    30    1
    26    25    26   ar
    27    26    27    1
    28    26    28   ar
    29     6     1   ar
    30    28    22   ar
    31    18    12   ar
    32    10    11    1
    33    30    31    1
@<TRIPOS>MOLECULE
*****
 31 33 0 0 0
SMALL
GASTEIGER

@<TRIPOS>ATOM
      1 C          63.7349   89.1424   13.1904 C.ar    1  UNL1        0.1042
      2 C          64.5458   90.4004   13.2903 C.ar    1  UNL1        0.0335
      3 C          64.4415   91.4469   12.2207 C.ar    1  UNL1        0.1261
      4 C          63.5264   91.2354   11.0512 C.ar    1  UNL1        0.0234
      5 C          62.7155   89.9774   10.9513 C.ar    1  UNL1        0.0396
      6 C          62.8198   88.9310   12.0209 C.ar    1  UNL1        0.1549
      7 S          65.2524   92.7049   12.3207 S.O2    1  UNL1        0.0747
      8 O          65.4587   92.4554   13.7853 O.2     1  UNL1       -0.1499
      9 O          65.0461   92.9543   10.8561 O.2     1  UNL1       -0.1499
     10 N          66.0633   93.9628   12.4207 N.pl3   1  UNL1       -0.1989
     11 H          66.3206   94.3137   13.3038 H       1  UNL1        0.1753
     12 C          66.4822   94.6861   11.1751 C.ar    1  UNL1        0.1472
     13 C          65.9128   96.0389   10.8660 C.ar    1  UNL1        0.0379
     14 C          66.3317   96.7621    9.6204 C.ar    1  UNL1        0.0342
     15 C          67.3201   96.1326    8.6841 C.ar    1  UNL1        0.1593
     16 F          67.7390   96.8559    7.4385 F       1  UNL1       -0.2025
     17 C          67.8896   94.7798    8.9932 C.ar    1  UNL1        0.1299
     18 N          67.4706   94.0566   10.2388 N.ar    1  UNL1       -0.2256
     19 N          63.9435   87.0495   15.3296 N.1     1  UNL1       -0.1907
     20 C          63.8392   88.0959   14.2600 C.1     1  UNL1        0.1035
     21 O          62.0089   87.6729   11.9209 O.3     1  UNL1       -0.4528
     22 C          61.8045   87.0163   10.5879 C.ar    1  UNL1        0.1462
     23 C          62.8670   86.1213   10.0219 C.ar    1  UNL1        0.0373
     24 C          62.6626   85.4647    8.6889 C.ar    1  UNL1        0.0021
     25 C          61.3958   85.7030    7.9218 C.ar    1  UNL1        0.0177
     26 C          60.3334   86.5979    8.4877 C.ar    1  UNL1        0.0591
     27 CL         59.0666   86.8362    7.7206 Cl      1  UNL1       -0.0824
     28 C          60.5377   87.2546    9.8208 C.ar    1  UNL1        0.0486
     29 C          61.1914   85.0463    6.5888 C.3     1  UNL1        0.1644
     30 O          62.3593   84.4524    5.8583 O.3     1  UNL1       -0.3772
     31 H          62.9717   85.1586    5.5992 H       1  UNL1        0.2109
@<TRIPOS>BOND
     1    19    20    3
     2    20     1    1
     3     1     2   ar
     4     2     3   ar
     5     3     7    1
     6     7     8    2
     7     7     9    2
     8     7    10    1
     9    10    12    1
    10    12    13   ar
    11    13    14   ar
    12    14    15   ar
    13    15    16    1
    14    15    17   ar
    15    17    18   ar
    16     3     4   ar
    17     4     5   ar
    18     5     6   ar
    19     6    21    1
    20    21    22    1
    21    22    23   ar
    22    23    24   ar
    23    24    25   ar
    24    25    29    1
    25    29    30    1
    26    25    26   ar
    27    26    27    1
    28    26    28   ar
    29     6     1   ar
    30    28    22   ar
    31    18    12   ar
    32    10    11    1
    33    30    31    1
@<TRIPOS>MOLECULE
*****
 31 33 0 0 0
SMALL
GASTEIGER

@<TRIPOS>ATOM
      1 C          62.1802   89.3757   10.6905 C.ar    1  UNL1        0.1042
      2 C          62.9353   90.6596   10.8681 C.ar    1  UNL1        0.0335
      3 C          63.9118   90.8053   11.9973 C.ar    1  UNL1        0.1261
      4 C          64.1334   89.6672   12.9489 C.ar    1  UNL1        0.0234
      5 C          63.3784   88.3833   12.7712 C.ar    1  UNL1        0.0396
      6 C          62.4018   88.2376   11.6420 C.ar    1  UNL1        0.1549
      7 S          64.6669   92.0893   12.1749 S.O2    1  UNL1        0.0747
      8 O          64.4968   92.3911   10.7156 O.2     1  UNL1       -0.1499
      9 O          64.8370   91.7874   13.6343 O.2     1  UNL1       -0.1499
     10 N          65.4219   93.3731   12.3525 N.pl3   1  UNL1       -0.1989
     11 H          65.5025   93.7772   13.2466 H       1  UNL1        0.1753
     12 C          66.0541   94.0415   11.1677 C.ar    1  UNL1        0.1472
     13 C          67.1281   93.3364   10.3935 C.ar    1  UNL1        0.0379
     14 C          67.7603   94.0047    9.2088 C.ar    1  UNL1        0.0342
     15 C          67.3185   95.3781    8.7982 C.ar    1  UNL1        0.1593
     16 F          67.9507   96.0465    7.6134 F       1  UNL1       -0.2025
     17 C          66.2445   96.0832    9.5724 C.ar    1  UNL1        0.1299
     18 N          65.6123   95.4149   10.7571 N.ar    1  UNL1       -0.2256
     19 N          60.2271   89.0843    8.4321 N.1     1  UNL1       -0.1907
     20 C          61.2037   89.2300    9.5613 C.1     1  UNL1        0.1035
     21 O          61.6467   86.9537   11.4644 O.3     1  UNL1       -0.4528
     22 C          62.2893   85.6488   11.8311 C.ar    1  UNL1        0.1462
     23 C          62.3649   85.2279   13.2689 C.ar    1  UNL1        0.0373
     24 C          63.0074   83.9231   13.6357 C.ar    1  UNL1        0.0021
     25 C          63.5744   83.0391   12.5646 C.ar    1  UNL1        0.0177
     26 C          63.4989   83.4600   11.1269 C.ar    1  UNL1        0.0591
     27 CL         64.0659   82.5760   10.0559 Cl      1  UNL1       -0.0824
     28 C          62.8563   84.7649   10.7601 C.ar    1  UNL1        0.0486
     29 C          64.2170   81.7343   12.9313 C.3     1  UNL1        0.1644
     30 O          63.6173   80.8795   14.0083 O.3     1  UNL1       -0.3772
     31 H          63.6842   81.3384   14.8602 H       1  UNL1        0.2109
@<TRIPOS>BOND
     1    19    20    3
     2    20     1    1
     3     1     2   ar
     4     2     3   ar
     5     3     7    1
     6     7     8    2
     7     7     9    2
     8     7    10    1
     9    10    12    1
    10    12    13   ar
    11    13    14   ar
    12    14    15   ar
    13    15    16    1
    14    15    17   ar
    15    17    18   ar
    16     3     4   ar
    17     4     5   ar
    18     5     6   ar
    19     6    21    1
    20    21    22    1
    21    22    23   ar
    22    23    24   ar
    23    24    25   ar
    24    25    29    1
    25    29    30    1
    26    25    26   ar
    27    26    27    1
    28    26    28   ar
    29     6     1   ar
    30    28    22   ar
    31    18    12   ar
    32    10    11    1
    33    30    31    1
@<TRIPOS>MOLECULE
*****
 31 33 0 0 0
SMALL
GASTEIGER

@<TRIPOS>ATOM
      1 C          63.0936   88.2933   12.4210 C.ar    1  UNL1        0.1042
      2 C          63.1659   86.8061   12.6026 C.ar    1  UNL1        0.0335
      3 C          63.8104   86.2307   13.8288 C.ar    1  UNL1        0.1261
      4 C          64.3827   87.1425   14.8733 C.ar    1  UNL1        0.0234
      5 C          64.3105   88.6297   14.6917 C.ar    1  UNL1        0.0396
      6 C          63.6659   89.2051   13.4655 C.ar    1  UNL1        0.1549
      7 S          63.8827   84.7435   14.0104 S.O2    1  UNL1        0.0747
      8 O          62.3914   84.6546   13.8753 O.2     1  UNL1       -0.1499
      9 O          65.3739   84.8323   14.1455 O.2     1  UNL1       -0.1499
     10 N          63.9548   83.2563   14.1920 N.pl3   1  UNL1       -0.1989
     11 H          64.1887   82.8784   15.0705 H       1  UNL1        0.1753
     12 C          63.6707   82.3447   13.0351 C.ar    1  UNL1        0.1472
     13 C          64.0470   82.7594   11.6435 C.ar    1  UNL1        0.0379
     14 C          63.7629   81.8479   10.4867 C.ar    1  UNL1        0.0342
     15 C          63.1025   80.5217   10.7214 C.ar    1  UNL1        0.1593
     16 F          62.8184   79.6101    9.5644 F       1  UNL1       -0.2025
     17 C          62.7262   80.1070   12.1129 C.ar    1  UNL1        0.1299
     18 N          63.0103   81.0185   13.2698 N.ar    1  UNL1       -0.2256
     19 N          61.8045   89.4441    9.9686 N.1     1  UNL1       -0.1907
     20 C          62.4491   88.8687   11.1948 C.1     1  UNL1        0.1035
     21 O          63.5937   90.6923   13.2839 O.3     1  UNL1       -0.4528
     22 C          64.6901   91.4133   12.5571 C.ar    1  UNL1        0.1462
     23 C          64.4363   91.9855   11.1939 C.ar    1  UNL1        0.0373
     24 C          65.5327   92.7065   10.4672 C.ar    1  UNL1        0.0021
     25 C          66.8828   92.8552   11.1036 C.ar    1  UNL1        0.0177
     26 C          67.1366   92.2830   12.4667 C.ar    1  UNL1        0.0591
     27 CL         68.4867   92.4318   13.1031 Cl      1  UNL1       -0.0824
     28 C          66.0402   91.5620   13.1935 C.ar    1  UNL1        0.0486
     29 C          67.9792   93.5762   10.3769 C.3     1  UNL1        0.1644
     30 O          69.1379   92.8074    9.8142 O.3     1  UNL1       -0.3772
     31 H          69.6517   92.4198   10.5399 H       1  UNL1        0.2109
@<TRIPOS>BOND
     1    19    20    3
     2    20     1    1
     3     1     2   ar
     4     2     3   ar
     5     3     7    1
     6     7     8    2
     7     7     9    2
     8     7    10    1
     9    10    12    1
    10    12    13   ar
    11    13    14   ar
    12    14    15   ar
    13    15    16    1
    14    15    17   ar
    15    17    18   ar
    16     3     4   ar
    17     4     5   ar
    18     5     6   ar
    19     6    21    1
    20    21    22    1
    21    22    23   ar
    22    23    24   ar
    23    24    25   ar
    24    25    29    1
    25    29    30    1
    26    25    26   ar
    27    26    27    1
    28    26    28   ar
    29     6     1   ar
    30    28    22   ar
    31    18    12   ar
    32    10    11    1
    33    30    31    1
@<TRIPOS>MOLECULE
*****
 31 33 0 0 0
SMALL
GASTEIGER

@<TRIPOS>ATOM
      1 C          64.0848   90.8806   13.1543 C.ar    1  UNL1        0.1042
      2 C          63.1850   89.7526   12.7446 C.ar    1  UNL1        0.0335
      3 C          62.7180   89.6441   11.3233 C.ar    1  UNL1        0.1261
      4 C          63.1508   90.6635   10.3117 C.ar    1  UNL1        0.0234
      5 C          64.0505   91.7915   10.7214 C.ar    1  UNL1        0.0396
      6 C          64.5175   91.9001   12.1428 C.ar    1  UNL1        0.1549
      7 S          61.8181   88.5160   10.9136 S.O2    1  UNL1        0.0747
      8 O          62.3648   87.6749   12.0288 O.2     1  UNL1       -0.1499
      9 O          61.2715   89.3570    9.7983 O.2     1  UNL1       -0.1499
     10 N          60.9184   87.3879   10.5039 N.pl3   1  UNL1       -0.1989
     11 H          60.1129   87.1841   11.0320 H       1  UNL1        0.1753
     12 C          61.2458   86.5704    9.2896 C.ar    1  UNL1        0.1472
     13 C          62.6052   85.9531    9.1453 C.ar    1  UNL1        0.0379
     14 C          62.9326   85.1356    7.9310 C.ar    1  UNL1        0.0342
     15 C          61.9006   84.9355    6.8610 C.ar    1  UNL1        0.1593
     16 F          62.2280   84.1180    5.6467 F       1  UNL1       -0.2025
     17 C          60.5412   85.5528    7.0053 C.ar    1  UNL1        0.1299
     18 N          60.2138   86.3702    8.2196 N.ar    1  UNL1       -0.2256
     19 N          65.0188   91.0977   15.9970 N.1     1  UNL1       -0.1907
     20 C          64.5518   90.9891   14.5756 C.1     1  UNL1        0.1035
     21 O          65.4174   93.0282   12.5525 O.3     1  UNL1       -0.4528
     22 C          65.9726   93.9591   11.5157 C.ar    1  UNL1        0.1462
     23 C          65.7837   95.4403   11.6593 C.ar    1  UNL1        0.0373
     24 C          66.3389   96.3712   10.6225 C.ar    1  UNL1        0.0021
     25 C          67.0832   95.8211    9.4420 C.ar    1  UNL1        0.0177
     26 C          67.2722   94.3400    9.2984 C.ar    1  UNL1        0.0591
     27 CL         68.0164   93.7899    8.1179 Cl      1  UNL1       -0.0824
     28 C          66.7169   93.4090   10.3352 C.ar    1  UNL1        0.0486
     29 C          67.6384   96.7520    8.4053 C.3     1  UNL1        0.1644
     30 O          66.9810   96.8554    7.0609 O.3     1  UNL1       -0.3772
     31 H          67.0748   96.0129    6.5895 H       1  UNL1        0.2109
@<TRIPOS>BOND
     1    19    20    3
     2    20     1    1
     3     1     2   ar
     4     2     3   ar
     5     3     7    1
     6     7     8    2
     7     7     9    2
     8     7    10    1
     9    10    12    1
    10    12    13   ar
    11    13    14   ar
    12    14    15   ar
    13    15    16    1
    14    15    17   ar
    15    17    18   ar
    16     3     4   ar
    17     4     5   ar
    18     5     6   ar
    19     6    21    1
    20    21    22    1
    21    22    23   ar
    22    23    24   ar
    23    24    25   ar
    24    25    29    1
    25    29    30    1
    26    25    26   ar
    27    26    27    1
    28    26    28   ar
    29     6     1   ar
    30    28    22   ar
    31    18    12   ar
    32    10    11    1
    33    30    31    1
@<TRIPOS>MOLECULE
*****
 31 33 0 0 0
SMALL
GASTEIGER

@<TRIPOS>ATOM
      1 C          62.0163   88.3731   10.9082 C.ar    1  UNL1        0.1042
      2 C          61.1109   88.8556    9.8140 C.ar    1  UNL1        0.0335
      3 C          60.3654   87.8673    8.9670 C.ar    1  UNL1        0.1261
      4 C          60.5253   86.3965    9.2142 C.ar    1  UNL1        0.0234
      5 C          61.4307   85.9140   10.3084 C.ar    1  UNL1        0.0396
      6 C          62.1762   86.9023   11.1554 C.ar    1  UNL1        0.1549
      7 S          59.4600   88.3499    7.8727 S.O2    1  UNL1        0.0747
      8 O          59.6933   89.7672    8.3048 O.2     1  UNL1       -0.1499
      9 O          59.2266   86.9326    7.4406 O.2     1  UNL1       -0.1499
     10 N          58.5546   88.8325    6.7785 N.pl3   1  UNL1       -0.1989
     11 H          57.6901   88.3878    6.6228 H       1  UNL1        0.1753
     12 C          58.9663   89.9927    5.9214 C.ar    1  UNL1        0.1472
     13 C          57.9395   90.9809    5.4532 C.ar    1  UNL1        0.0379
     14 C          58.3513   92.1409    4.5961 C.ar    1  UNL1        0.0342
     15 C          59.7897   92.3128    4.2072 C.ar    1  UNL1        0.1593
     16 F          60.2014   93.4730    3.3501 F       1  UNL1       -0.2025
     17 C          60.8165   91.3246    4.6754 C.ar    1  UNL1        0.1299
     18 N          60.4048   90.1645    5.5324 N.ar    1  UNL1       -0.2256
     19 N          63.5074   90.3497   12.6023 N.1     1  UNL1       -0.1907
     20 C          62.7619   89.3614   11.7553 C.1     1  UNL1        0.1035
     21 O          63.0816   86.4197   12.2497 O.3     1  UNL1       -0.4528
     22 C          63.1039   84.9659   12.6183 C.ar    1  UNL1        0.1462
     23 C          63.0537   84.5569   14.0606 C.ar    1  UNL1        0.0373
     24 C          63.0760   83.1031   14.4292 C.ar    1  UNL1        0.0021
     25 C          63.1484   82.0582   13.3555 C.ar    1  UNL1        0.0177
     26 C          63.1985   82.4671   11.9132 C.ar    1  UNL1        0.0591
     27 CL         63.2709   81.4222   10.8395 Cl      1  UNL1       -0.0824
     28 C          63.1763   83.9210   11.5446 C.ar    1  UNL1        0.0486
     29 C          63.1706   80.6044   13.7240 C.3     1  UNL1        0.1644
     30 O          62.0259   79.7152   13.3380 O.3     1  UNL1       -0.3772
     31 H          61.2272   79.9911   13.8143 H       1  UNL1        0.2109
@<TRIPOS>BOND
     1    19    20    3
     2    20     1    1
     3     1     2   ar
     4     2     3   ar
     5     3     7    1
     6     7     8    2
     7     7     9    2
     8     7    10    1
     9    10    12    1
    10    12    13   ar
    11    13    14   ar
    12    14    15   ar
    13    15    16    1
    14    15    17   ar
    15    17    18   ar
    16     3     4   ar
    17     4     5   ar
    18     5     6   ar
    19     6    21    1
    20    21    22    1
    21    22    23   ar
    22    23    24   ar
    23    24    25   ar
    24    25    29    1
    25    29    30    1
    26    25    26   ar
    27    26    27    1
    28    26    28   ar
    29     6     1   ar
    30    28    22   ar
    31    18    12   ar
    32    10    11    1
    33    30    31    1
@<TRIPOS>MOLECULE
*****
 31 33 0 0 0
SMALL
GASTEIGER

@<TRIPOS>ATOM
      1 C          63.7469   89.3575   14.8164 C.ar    1  UNL1        0.1042
      2 C          63.9013   87.9473   15.3037 C.ar    1  UNL1        0.0335
      3 C          63.8083   86.8050   14.3360 C.ar    1  UNL1        0.1261
      4 C          63.5609   87.0728   12.8810 C.ar    1  UNL1        0.0234
      5 C          63.4066   88.4830   12.3938 C.ar    1  UNL1        0.0396
      6 C          63.4996   89.6253   13.3614 C.ar    1  UNL1        0.1549
      7 S          63.9627   85.3947   14.8234 S.O2    1  UNL1        0.0747
      8 O          62.4774   85.2033   14.7398 O.2     1  UNL1       -0.1499
      9 O          65.4480   85.5862   14.9070 O.2     1  UNL1       -0.1499
     10 N          64.1170   83.9845   15.3107 N.pl3   1  UNL1       -0.1989
     11 H          64.4819   83.8112   16.2086 H       1  UNL1        0.1753
     12 C          63.7155   82.8385   14.4301 C.ar    1  UNL1        0.1472
     13 C          64.3447   82.6750   13.0784 C.ar    1  UNL1        0.0379
     14 C          63.9432   81.5290   12.1979 C.ar    1  UNL1        0.0342
     15 C          62.9124   80.5464   12.6691 C.ar    1  UNL1        0.1593
     16 F          62.5109   79.4004   11.7885 F       1  UNL1       -0.2025
     17 C          62.2832   80.7099   14.0208 C.ar    1  UNL1        0.1299
     18 N          62.6847   81.8559   14.9014 N.ar    1  UNL1       -0.2256
     19 N          63.9329   91.6422   16.7518 N.1     1  UNL1       -0.1907
     20 C          63.8399   90.4998   15.7841 C.1     1  UNL1        0.1035
     21 O          63.3452   91.0356   12.8741 O.3     1  UNL1       -0.4528
     22 C          64.4946   91.7273   12.2030 C.ar    1  UNL1        0.1462
     23 C          64.2978   92.3887   10.8712 C.ar    1  UNL1        0.0373
     24 C          65.4472   93.0804   10.2001 C.ar    1  UNL1        0.0021
     25 C          66.7935   93.1107   10.8609 C.ar    1  UNL1        0.0177
     26 C          66.9904   92.4493   12.1927 C.ar    1  UNL1        0.0591
     27 CL         68.3366   92.4796   12.8535 Cl      1  UNL1       -0.0824
     28 C          65.8409   91.7575   12.8638 C.ar    1  UNL1        0.0486
     29 C          67.9430   93.8024   10.1899 C.3     1  UNL1        0.1644
     30 O          69.1551   93.0186    9.7817 O.3     1  UNL1       -0.3772
     31 H          69.6060   92.6850   10.5731 H       1  UNL1        0.2109
@<TRIPOS>BOND
     1    19    20    3
     2    20     1    1
     3     1     2   ar
     4     2     3   ar
     5     3     7    1
     6     7     8    2
     7     7     9    2
     8     7    10    1
     9    10    12    1
    10    12    13   ar
    11    13    14   ar
    12    14    15   ar
    13    15    16    1
    14    15    17   ar
    15    17    18   ar
    16     3     4   ar
    17     4     5   ar
    18     5     6   ar
    19     6    21    1
    20    21    22    1
    21    22    23   ar
    22    23    24   ar
    23    24    25   ar
    24    25    29    1
    25    29    30    1
    26    25    26   ar
    27    26    27    1
    28    26    28   ar
    29     6     1   ar
    30    28    22   ar
    31    18    12   ar
    32    10    11    1
    33    30    31    1
@<TRIPOS>MOLECULE
*****
 31 33 0 0 0
SMALL
GASTEIGER

@<TRIPOS>ATOM
      1 C          63.0635   87.9262   12.2720 C.ar    1  UNL1        0.1042
      2 C          63.1128   86.4737   12.6431 C.ar    1  UNL1        0.0335
      3 C          63.7972   86.0454   13.9073 C.ar    1  UNL1        0.1261
      4 C          64.4322   87.0696   14.8004 C.ar    1  UNL1        0.0234
      5 C          64.3829   88.5221   14.4294 C.ar    1  UNL1        0.0396
      6 C          63.6985   88.9504   13.1652 C.ar    1  UNL1        0.1549
      7 S          63.8465   84.5928   14.2784 S.O2    1  UNL1        0.0747
      8 O          65.3457   84.6393   14.2612 O.2     1  UNL1       -0.1499
      9 O          62.3474   84.5462   14.2956 O.2     1  UNL1       -0.1499
     10 N          63.8959   83.1403   14.6494 N.pl3   1  UNL1       -0.1989
     11 H          64.1671   82.8731   15.5573 H       1  UNL1        0.1753
     12 C          63.5320   82.0948   13.6371 C.ar    1  UNL1        0.1472
     13 C          63.8277   82.3225   12.1843 C.ar    1  UNL1        0.0379
     14 C          63.4639   81.2770   11.1721 C.ar    1  UNL1        0.0342
     15 C          62.8044   80.0039   11.6127 C.ar    1  UNL1        0.1593
     16 F          62.4405   78.9584   10.6004 F       1  UNL1       -0.2025
     17 C          62.5087   79.7762   13.0655 C.ar    1  UNL1        0.1299
     18 N          62.8725   80.8216   14.0777 N.ar    1  UNL1       -0.2256
     19 N          61.6948   88.7828    9.7436 N.1     1  UNL1       -0.1907
     20 C          62.3792   88.3545   11.0078 C.1     1  UNL1        0.1035
     21 O          63.6492   90.4030   12.7941 O.3     1  UNL1       -0.4528
     22 C          64.6924   91.3462   13.3158 C.ar    1  UNL1        0.1462
     23 C          65.4891   92.1856   12.3614 C.ar    1  UNL1        0.0373
     24 C          66.5323   93.1287   12.8831 C.ar    1  UNL1        0.0021
     25 C          66.7789   93.2325   14.3590 C.ar    1  UNL1        0.0177
     26 C          65.9822   92.3932   15.3133 C.ar    1  UNL1        0.0591
     27 CL         66.2287   92.4970   16.7893 Cl      1  UNL1       -0.0824
     28 C          64.9389   91.4500   14.7917 C.ar    1  UNL1        0.0486
     29 C          67.8221   94.1757   14.8807 C.3     1  UNL1        0.1644
     30 O          69.1147   93.6399   15.4210 O.3     1  UNL1       -0.3772
     31 H          68.9411   93.1282   16.2266 H       1  UNL1        0.2109
@<TRIPOS>BOND
     1    19    20    3
     2    20     1    1
     3     1     2   ar
     4     2     3   ar
     5     3     7    1
     6     7     8    2
     7     7     9    2
     8     7    10    1
     9    10    12    1
    10    12    13   ar
    11    13    14   ar
    12    14    15   ar
    13    15    16    1
    14    15    17   ar
    15    17    18   ar
    16     3     4   ar
    17     4     5   ar
    18     5     6   ar
    19     6    21    1
    20    21    22    1
    21    22    23   ar
    22    23    24   ar
    23    24    25   ar
    24    25    29    1
    25    29    30    1
    26    25    26   ar
    27    26    27    1
    28    26    28   ar
    29     6     1   ar
    30    28    22   ar
    31    18    12   ar
    32    10    11    1
    33    30    31    1
@<TRIPOS>MOLECULE
*****
 31 33 0 0 0
SMALL
GASTEIGER

@<TRIPOS>ATOM
      1 C          62.0306   88.8533   10.6461 C.ar    1  UNL1        0.1042
      2 C          62.7485   90.1485   10.8850 C.ar    1  UNL1        0.0335
      3 C          63.7005   90.2769   12.0370 C.ar    1  UNL1        0.1261
      4 C          63.9346   89.1102   12.9502 C.ar    1  UNL1        0.0234
      5 C          63.2167   87.8150   12.7113 C.ar    1  UNL1        0.0396
      6 C          62.2648   87.6866   11.5592 C.ar    1  UNL1        0.1549
      7 S          64.4183   91.5722   12.2759 S.O2    1  UNL1        0.0747
      8 O          64.6579   91.7113   10.8018 O.2     1  UNL1       -0.1499
      9 O          64.1788   91.4332   13.7501 O.2     1  UNL1       -0.1499
     10 N          65.1362   92.8674   12.5148 N.pl3   1  UNL1       -0.1989
     11 H          64.8423   93.6856   12.0527 H       1  UNL1        0.1753
     12 C          66.3018   92.9161   13.4577 C.ar    1  UNL1        0.1472
     13 C          67.4756   92.0064   13.2468 C.ar    1  UNL1        0.0379
     14 C          68.6411   92.0552   14.1897 C.ar    1  UNL1        0.0342
     15 C          68.6329   93.0137   15.3435 C.ar    1  UNL1        0.1593
     16 F          69.7985   93.0624   16.2864 F       1  UNL1       -0.2025
     17 C          67.4590   93.9234   15.5544 C.ar    1  UNL1        0.1299
     18 N          66.2935   93.8746   14.6115 N.ar    1  UNL1       -0.2256
     19 N          60.1267   88.5964    8.3419 N.1     1  UNL1       -0.1907
     20 C          61.0787   88.7248    9.4940 C.1     1  UNL1        0.1035
     21 O          61.5469   86.3913   11.3203 O.3     1  UNL1       -0.4528
     22 C          62.1205   85.1082   11.8443 C.ar    1  UNL1        0.1462
     23 C          62.6269   84.0678   10.8897 C.ar    1  UNL1        0.0373
     24 C          63.2004   82.7847   11.4137 C.ar    1  UNL1        0.0021
     25 C          63.2676   82.5419   12.8924 C.ar    1  UNL1        0.0177
     26 C          62.7613   83.5822   13.8471 C.ar    1  UNL1        0.0591
     27 CL         62.8285   83.3394   15.3257 Cl      1  UNL1       -0.0824
     28 C          62.1877   84.8654   13.3230 C.ar    1  UNL1        0.0486
     29 C          63.8412   81.2588   13.4165 C.3     1  UNL1        0.1644
     30 O          62.9376   80.2245   14.0197 O.3     1  UNL1       -0.3772
     31 H          62.5469   80.5731   14.8362 H       1  UNL1        0.2109
@<TRIPOS>BOND
     1    19    20    3
     2    20     1    1
     3     1     2   ar
     4     2     3   ar
     5     3     7    1
     6     7     8    2
     7     7     9    2
     8     7    10    1
     9    10    12    1
    10    12    13   ar
    11    13    14   ar
    12    14    15   ar
    13    15    16    1
    14    15    17   ar
    15    17    18   ar
    16     3     4   ar
    17     4     5   ar
    18     5     6   ar
    19     6    21    1
    20    21    22    1
    21    22    23   ar
    22    23    24   ar
    23    24    25   ar
    24    25    29    1
    25    29    30    1
    26    25    26   ar
    27    26    27    1
    28    26    28   ar
    29     6     1   ar
    30    28    22   ar
    31    18    12   ar
    32    10    11    1
    33    30    31    1
