@<TRIPOS>MOLECULE
*****
 35 39 0 0 0
SMALL
GASTEIGER

@<TRIPOS>ATOM
      1 C          64.4429   90.6028   12.4731 C.3     1  UNL1        0.0790
      2 C          63.5459   89.7169   11.6605 C.3     1  UNL1        0.0216
      3 C          63.1953   88.3458   12.1577 C.3     1  UNL1        0.0213
      4 C          63.7417   87.8607   13.4677 C.3     1  UNL1        0.0720
      5 C          64.6388   88.7467   14.2804 C.3     1  UNL1        0.0213
      6 C          64.9893   90.1177   13.7831 C.3     1  UNL1        0.0216
      7 C          66.0443   95.5226   11.1793 C.3     1  UNL1        0.0458
      8 C          65.7916   94.1788   11.7963 C.3     1  UNL1        0.1581
      9 C          66.7618   94.6500   12.8387 C.3     1  UNL1        0.0458
     10 O          64.8741   93.9886   10.6249 O.3     1  UNL1       -0.4398
     11 C          64.2572   92.6258   10.7359 C.2     1  UNL1        0.4049
     12 O          63.2764   92.0212    9.7755 O.2     1  UNL1       -0.2262
     13 N          64.7934   91.9739   11.9759 N.am    1  UNL1       -0.2421
     14 C          65.7417   92.9337   12.6312 C.3     1  UNL1        0.1375
     15 C          66.5059   92.6910   13.8989 C.ar    1  UNL1       -0.0008
     16 C          65.8456   92.9144   15.2271 C.ar    1  UNL1       -0.0026
     17 C          66.6098   92.6717   16.4948 C.ar    1  UNL1       -0.0003
     18 C          68.0342   92.2056   16.4344 C.ar    1  UNL1       -0.0000
     19 C          68.6946   91.9822   15.1062 C.ar    1  UNL1       -0.0003
     20 C          67.9304   92.2249   13.8385 C.ar    1  UNL1       -0.0026
     21 N          63.3912   86.4896   13.9650 N.am    1  UNL1       -0.3024
     22 C          63.1356   85.3802   12.9883 C.2     1  UNL1        0.2474
     23 O          63.2306   85.6418   11.5144 O.2     1  UNL1       -0.2701
     24 H          63.3289   86.3179   14.9324 H       1  UNL1        0.1497
     25 C          62.7851   84.0091   13.4857 C.ar    1  UNL1        0.0740
     26 C          62.3449   83.8165   14.9066 C.ar    1  UNL1        0.0267
     27 C          61.9944   82.4455   15.4039 C.ar    1  UNL1        0.0991
     28 N          62.0840   81.2670   14.4803 N.ar    1  UNL1       -0.2422
     29 C          62.5242   81.4596   13.0593 C.ar    1  UNL1        0.1013
     30 C          62.6138   80.2811   12.1356 C.ar    1  UNL1        0.0519
     31 C          63.0540   80.4737   10.7147 C.ar    1  UNL1        0.1607
     32 F          63.1436   79.2952    9.7910 F       1  UNL1       -0.2025
     33 C          63.4045   81.8448   10.2174 C.ar    1  UNL1        0.1285
     34 N          63.3149   83.0232   11.1410 N.ar    1  UNL1       -0.2398
     35 C          62.8747   82.8306   12.5620 C.ar    1  UNL1        0.1034
@<TRIPOS>BOND
     1     7     8    1
     2     8     9    1
     3     8    10    1
     4    10    11    1
     5    11    12    2
     6    11    13   am
     7     1    13    1
     8     1     2    1
     9     2     3    1
    10     3     4    1
    11     4    21    1
    12    21    22   am
    13    22    23    2
    14    22    25    1
    15    25    26   ar
    16    26    27   ar
    17    27    28   ar
    18    28    29   ar
    19    29    30   ar
    20    30    31   ar
    21    31    32    1
    22    31    33   ar
    23    33    34   ar
    24    34    35   ar
    25     4     5    1
    26     5     6    1
    27    13    14    1
    28    14    15    1
    29    15    16   ar
    30    16    17   ar
    31    17    18   ar
    32    18    19   ar
    33    19    20   ar
    34    14     8    1
    35    20    15   ar
    36     6     1    1
    37    35    25   ar
    38    35    29   ar
    39    21    24    1
@<TRIPOS>MOLECULE
*****
 35 39 0 0 0
SMALL
GASTEIGER

@<TRIPOS>ATOM
      1 C          63.3258   85.9464   14.0212 C.3     1  UNL1        0.0790
      2 C          63.0382   86.7493   12.7873 C.3     1  UNL1        0.0216
      3 C          63.4546   88.1886   12.7151 C.3     1  UNL1        0.0213
      4 C          64.1586   88.8249   13.8768 C.3     1  UNL1        0.0720
      5 C          64.4462   88.0218   15.1107 C.3     1  UNL1        0.0213
      6 C          64.0298   86.5826   15.1829 C.3     1  UNL1        0.0216
      7 C          61.8851   80.8225   13.6850 C.3     1  UNL1        0.0458
      8 C          62.3072   82.2438   13.4570 C.3     1  UNL1        0.1581
      9 C          62.2961   81.8494   12.0098 C.3     1  UNL1        0.0458
     10 O          62.2301   82.3410   14.9519 O.3     1  UNL1       -0.4398
     11 C          62.6023   83.7398   15.3452 C.2     1  UNL1        0.4049
     12 O          62.6577   84.2771   16.7446 O.2     1  UNL1       -0.2262
     13 N          62.9095   84.5071   14.0934 N.am    1  UNL1       -0.2421
     14 C          62.7271   83.5825   12.9264 C.3     1  UNL1        0.1375
     15 C          62.9291   83.9347   11.4825 C.ar    1  UNL1       -0.0008
     16 C          64.0487   83.3065   10.7068 C.ar    1  UNL1       -0.0026
     17 C          64.2507   83.6588    9.2628 C.ar    1  UNL1       -0.0003
     18 C          63.3331   84.6391    8.5944 C.ar    1  UNL1       -0.0000
     19 C          62.2134   85.2674    9.3701 C.ar    1  UNL1       -0.0003
     20 C          62.0114   84.9152   10.8140 C.ar    1  UNL1       -0.0026
     21 N          64.5750   90.2641   13.8046 N.am    1  UNL1       -0.3024
     22 C          65.9097   90.6866   14.3432 C.2     1  UNL1        0.2474
     23 O          66.8281   89.6699   14.9539 O.2     1  UNL1       -0.2701
     24 H          63.9723   90.9314   13.4038 H       1  UNL1        0.1497
     25 C          66.3261   92.1259   14.2710 C.ar    1  UNL1        0.0740
     26 C          66.9781   92.7783   15.4538 C.ar    1  UNL1        0.0267
     27 C          67.3945   94.2175   15.3816 C.ar    1  UNL1        0.0991
     28 N          67.1587   95.0043   14.1265 N.ar    1  UNL1       -0.2422
     29 C          66.5067   94.3520   12.9436 C.ar    1  UNL1        0.1013
     30 C          66.2710   95.1388   11.6885 C.ar    1  UNL1        0.0519
     31 C          65.6189   94.4865   10.5057 C.ar    1  UNL1        0.1607
     32 F          65.3832   95.2733    9.2505 F       1  UNL1       -0.2025
     33 C          65.2025   93.0472   10.5779 C.ar    1  UNL1        0.1285
     34 N          65.4383   92.2603   11.8330 N.ar    1  UNL1       -0.2398
     35 C          66.0904   92.9128   13.0159 C.ar    1  UNL1        0.1034
@<TRIPOS>BOND
     1     7     8    1
     2     8     9    1
     3     8    10    1
     4    10    11    1
     5    11    12    2
     6    11    13   am
     7     1    13    1
     8     1     2    1
     9     2     3    1
    10     3     4    1
    11     4    21    1
    12    21    22   am
    13    22    23    2
    14    22    25    1
    15    25    26   ar
    16    26    27   ar
    17    27    28   ar
    18    28    29   ar
    19    29    30   ar
    20    30    31   ar
    21    31    32    1
    22    31    33   ar
    23    33    34   ar
    24    34    35   ar
    25     4     5    1
    26     5     6    1
    27    13    14    1
    28    14    15    1
    29    15    16   ar
    30    16    17   ar
    31    17    18   ar
    32    18    19   ar
    33    19    20   ar
    34    14     8    1
    35    20    15   ar
    36     6     1    1
    37    35    25   ar
    38    35    29   ar
    39    21    24    1
@<TRIPOS>MOLECULE
*****
 35 39 0 0 0
SMALL
GASTEIGER

@<TRIPOS>ATOM
      1 C          62.1978   87.1261   11.2630 C.3     1  UNL1        0.0790
      2 C          62.8538   88.3857   10.7804 C.3     1  UNL1        0.0216
      3 C          62.1379   89.2812    9.8130 C.3     1  UNL1        0.0213
      4 C          60.7659   88.9169    9.3283 C.3     1  UNL1        0.0720
      5 C          60.1098   87.6572    9.8109 C.3     1  UNL1        0.0213
      6 C          60.8258   86.7618   10.7782 C.3     1  UNL1        0.0216
      7 C          64.8621   84.4328   15.0166 C.3     1  UNL1        0.0458
      8 C          64.1856   85.4476   14.1432 C.3     1  UNL1        0.1581
      9 C          64.6671   86.4245   15.1746 C.3     1  UNL1        0.0458
     10 O          63.8454   84.2584   13.2944 O.3     1  UNL1       -0.4398
     11 C          63.0594   84.7425   12.1122 C.2     1  UNL1        0.4049
     12 O          62.5146   83.8883   11.0060 O.2     1  UNL1       -0.2262
     13 N          62.9137   86.2308   12.2303 N.am    1  UNL1       -0.2421
     14 C          63.6097   86.6665   13.4855 C.3     1  UNL1        0.1375
     15 C          63.7120   88.0740   13.9939 C.ar    1  UNL1       -0.0008
     16 C          64.1190   89.1792   13.0649 C.ar    1  UNL1       -0.0026
     17 C          64.2213   90.5867   13.5733 C.ar    1  UNL1       -0.0003
     18 C          63.9166   90.8891   15.0105 C.ar    1  UNL1       -0.0000
     19 C          63.5096   89.7839   15.9395 C.ar    1  UNL1       -0.0003
     20 C          63.4073   88.3764   15.4312 C.ar    1  UNL1       -0.0026
     21 N          60.0499   89.8122    8.3610 N.am    1  UNL1       -0.3024
     22 C          59.5377   89.2584    7.0644 C.2     1  UNL1        0.2474
     23 O          59.7415   87.8093    6.7352 O.2     1  UNL1       -0.2701
     24 H          59.9162   90.7633    8.5770 H       1  UNL1        0.1497
     25 C          58.8218   90.1538    6.0971 C.ar    1  UNL1        0.0740
     26 C          57.3260   90.2589    6.1384 C.ar    1  UNL1        0.0267
     27 C          56.6101   91.1543    5.1711 C.ar    1  UNL1        0.0991
     28 N          57.3900   91.9446    4.1625 N.ar    1  UNL1       -0.2422
     29 C          58.8857   91.8395    4.1212 C.ar    1  UNL1        0.1013
     30 C          59.6655   92.6299    3.1126 C.ar    1  UNL1        0.0519
     31 C          61.1612   92.5248    3.0713 C.ar    1  UNL1        0.1607
     32 F          61.9410   93.3152    2.0627 F       1  UNL1       -0.2025
     33 C          61.8772   91.6294    4.0387 C.ar    1  UNL1        0.1285
     34 N          61.0974   90.8391    5.0473 N.ar    1  UNL1       -0.2398
     35 C          59.6016   90.9442    5.0885 C.ar    1  UNL1        0.1034
@<TRIPOS>BOND
     1     7     8    1
     2     8     9    1
     3     8    10    1
     4    10    11    1
     5    11    12    2
     6    11    13   am
     7     1    13    1
     8     1     2    1
     9     2     3    1
    10     3     4    1
    11     4    21    1
    12    21    22   am
    13    22    23    2
    14    22    25    1
    15    25    26   ar
    16    26    27   ar
    17    27    28   ar
    18    28    29   ar
    19    29    30   ar
    20    30    31   ar
    21    31    32    1
    22    31    33   ar
    23    33    34   ar
    24    34    35   ar
    25     4     5    1
    26     5     6    1
    27    13    14    1
    28    14    15    1
    29    15    16   ar
    30    16    17   ar
    31    17    18   ar
    32    18    19   ar
    33    19    20   ar
    34    14     8    1
    35    20    15   ar
    36     6     1    1
    37    35    25   ar
    38    35    29   ar
    39    21    24    1
@<TRIPOS>MOLECULE
*****
 35 39 0 0 0
SMALL
GASTEIGER

@<TRIPOS>ATOM
      1 C          63.7339   87.5388   13.4627 C.3     1  UNL1        0.0790
      2 C          63.2278   88.2004   12.2153 C.3     1  UNL1        0.0216
      3 C          63.4885   89.6590   11.9813 C.3     1  UNL1        0.0213
      4 C          64.2554   90.4558   12.9946 C.3     1  UNL1        0.0720
      5 C          64.7615   89.7941   14.2421 C.3     1  UNL1        0.0213
      6 C          64.5008   88.3356   14.4761 C.3     1  UNL1        0.0216
      7 C          62.6163   82.3310   13.7324 C.3     1  UNL1        0.0458
      8 C          62.8237   83.7673   13.3524 C.3     1  UNL1        0.1581
      9 C          62.2839   83.3298   12.0231 C.3     1  UNL1        0.0458
     10 O          63.3202   83.9045   14.7613 O.3     1  UNL1       -0.4398
     11 C          63.7216   85.3341   14.9740 C.2     1  UNL1        0.4049
     12 O          64.2743   85.9153   16.2416 O.2     1  UNL1       -0.2262
     13 N          63.4732   86.0803   13.6968 N.am    1  UNL1       -0.2421
     14 C          62.9183   85.1120   12.6946 C.3     1  UNL1        0.1375
     15 C          62.5267   85.4321   11.2824 C.ar    1  UNL1       -0.0008
     16 C          63.3893   84.9760   10.1432 C.ar    1  UNL1       -0.0026
     17 C          62.9977   85.2961    8.7311 C.ar    1  UNL1       -0.0003
     18 C          61.7436   86.0723    8.4580 C.ar    1  UNL1       -0.0000
     19 C          60.8809   86.5284    9.5973 C.ar    1  UNL1       -0.0003
     20 C          61.2725   86.2083   11.0094 C.ar    1  UNL1       -0.0026
     21 N          64.5161   91.9143   12.7606 N.am    1  UNL1       -0.3024
     22 C          65.9231   92.4079   12.5971 C.2     1  UNL1        0.2474
     23 O          67.0694   91.4430   12.6677 O.2     1  UNL1       -0.2701
     24 H          63.7638   92.5476   12.7143 H       1  UNL1        0.1497
     25 C          66.1838   93.8665   12.3631 C.ar    1  UNL1        0.0740
     26 C          66.0861   94.8379   13.5018 C.ar    1  UNL1        0.0267
     27 C          66.3468   96.2964   13.2677 C.ar    1  UNL1        0.0991
     28 N          66.7052   96.7834   11.8950 N.ar    1  UNL1       -0.2422
     29 C          66.8030   95.8119   10.7563 C.ar    1  UNL1        0.1013
     30 C          67.1614   96.2989    9.3836 C.ar    1  UNL1        0.0519
     31 C          67.2591   95.3274    8.2449 C.ar    1  UNL1        0.1607
     32 F          67.6176   95.8144    6.8722 F       1  UNL1       -0.2025
     33 C          66.9984   93.8688    8.4790 C.ar    1  UNL1        0.1285
     34 N          66.6400   93.3818    9.8517 N.ar    1  UNL1       -0.2398
     35 C          66.5423   94.3534   10.9904 C.ar    1  UNL1        0.1034
@<TRIPOS>BOND
     1     7     8    1
     2     8     9    1
     3     8    10    1
     4    10    11    1
     5    11    12    2
     6    11    13   am
     7     1    13    1
     8     1     2    1
     9     2     3    1
    10     3     4    1
    11     4    21    1
    12    21    22   am
    13    22    23    2
    14    22    25    1
    15    25    26   ar
    16    26    27   ar
    17    27    28   ar
    18    28    29   ar
    19    29    30   ar
    20    30    31   ar
    21    31    32    1
    22    31    33   ar
    23    33    34   ar
    24    34    35   ar
    25     4     5    1
    26     5     6    1
    27    13    14    1
    28    14    15    1
    29    15    16   ar
    30    16    17   ar
    31    17    18   ar
    32    18    19   ar
    33    19    20   ar
    34    14     8    1
    35    20    15   ar
    36     6     1    1
    37    35    25   ar
    38    35    29   ar
    39    21    24    1
@<TRIPOS>MOLECULE
*****
 35 39 0 0 0
SMALL
GASTEIGER

@<TRIPOS>ATOM
      1 C          64.3131   91.2394   13.4030 C.3     1  UNL1        0.0790
      2 C          64.2588   91.7433   11.9913 C.3     1  UNL1        0.0216
      3 C          63.3181   91.1148   11.0062 C.3     1  UNL1        0.0213
      4 C          62.4318   89.9825   11.4331 C.3     1  UNL1        0.0720
      5 C          62.4861   89.4786   12.8449 C.3     1  UNL1        0.0213
      6 C          63.4268   90.1070   13.8298 C.3     1  UNL1        0.0216
      7 C          68.0082   93.5970   16.4412 C.3     1  UNL1        0.0458
      8 C          67.1707   93.0082   15.3448 C.3     1  UNL1        0.1581
      9 C          68.2844   93.4778   14.4565 C.3     1  UNL1        0.0458
     10 O          66.2321   92.6617   16.4624 O.3     1  UNL1       -0.4398
     11 C          65.0474   91.9569   15.8710 C.2     1  UNL1        0.4049
     12 O          63.8641   91.4331   16.6295 O.2     1  UNL1       -0.2262
     13 N          65.2538   91.8678   14.3879 N.am    1  UNL1       -0.2421
     14 C          66.5661   92.5176   14.0627 C.3     1  UNL1        0.1375
     15 C          67.1681   92.6530   12.6955 C.ar    1  UNL1       -0.0008
     16 C          68.1500   91.6312   12.2039 C.ar    1  UNL1       -0.0026
     17 C          68.7520   91.7665   10.8367 C.ar    1  UNL1       -0.0003
     18 C          68.3721   92.9236    9.9611 C.ar    1  UNL1       -0.0000
     19 C          67.3902   93.9455   10.4527 C.ar    1  UNL1       -0.0003
     20 C          66.7882   93.8101   11.8199 C.ar    1  UNL1       -0.0026
     21 N          61.4911   89.3540   10.4481 N.am    1  UNL1       -0.3024
     22 C          61.5837   87.8861   10.1541 C.2     1  UNL1        0.2474
     23 O          62.6170   87.0465   10.8450 O.2     1  UNL1       -0.2701
     24 H          60.8129   89.9050    9.9946 H       1  UNL1        0.1497
     25 C          60.6430   87.2576    9.1691 C.ar    1  UNL1        0.0740
     26 C          59.1896   87.6284    9.1785 C.ar    1  UNL1        0.0267
     27 C          58.2489   87.0000    8.1935 C.ar    1  UNL1        0.0991
     28 N          58.7616   86.0008    7.1992 N.ar    1  UNL1       -0.2422
     29 C          60.2150   85.6300    7.1899 C.ar    1  UNL1        0.1013
     30 C          60.7277   84.6307    6.1955 C.ar    1  UNL1        0.0519
     31 C          62.1811   84.2599    6.1862 C.ar    1  UNL1        0.1607
     32 F          62.6938   83.2607    5.1919 F       1  UNL1       -0.2025
     33 C          63.1219   84.8884    7.1712 C.ar    1  UNL1        0.1285
     34 N          62.6092   85.8876    8.1655 N.ar    1  UNL1       -0.2398
     35 C          61.1557   86.2584    8.1748 C.ar    1  UNL1        0.1034
@<TRIPOS>BOND
     1     7     8    1
     2     8     9    1
     3     8    10    1
     4    10    11    1
     5    11    12    2
     6    11    13   am
     7     1    13    1
     8     1     2    1
     9     2     3    1
    10     3     4    1
    11     4    21    1
    12    21    22   am
    13    22    23    2
    14    22    25    1
    15    25    26   ar
    16    26    27   ar
    17    27    28   ar
    18    28    29   ar
    19    29    30   ar
    20    30    31   ar
    21    31    32    1
    22    31    33   ar
    23    33    34   ar
    24    34    35   ar
    25     4     5    1
    26     5     6    1
    27    13    14    1
    28    14    15    1
    29    15    16   ar
    30    16    17   ar
    31    17    18   ar
    32    18    19   ar
    33    19    20   ar
    34    14     8    1
    35    20    15   ar
    36     6     1    1
    37    35    25   ar
    38    35    29   ar
    39    21    24    1
@<TRIPOS>MOLECULE
*****
 35 39 0 0 0
SMALL
GASTEIGER

@<TRIPOS>ATOM
      1 C          63.3588   85.8001   14.1038 C.3     1  UNL1        0.0790
      2 C          64.2515   86.3443   15.1793 C.3     1  UNL1        0.0216
      3 C          64.7781   87.7453   15.0794 C.3     1  UNL1        0.0213
      4 C          64.4120   88.6021   13.9039 C.3     1  UNL1        0.0720
      5 C          63.5193   88.0578   12.8282 C.3     1  UNL1        0.0213
      6 C          62.9927   86.6569   12.9282 C.3     1  UNL1        0.0216
      7 C          61.5607   80.7846   13.8707 C.3     1  UNL1        0.0458
      8 C          62.1009   82.1607   13.6163 C.3     1  UNL1        0.1581
      9 C          62.1458   81.7080   12.1870 C.3     1  UNL1        0.0458
     10 O          61.9430   82.3258   15.0989 O.3     1  UNL1       -0.4398
     11 C          62.3950   83.7092   15.4619 C.2     1  UNL1        0.4049
     12 O          62.4076   84.2992   16.8409 O.2     1  UNL1       -0.2262
     13 N          62.8323   84.3992   14.2037 N.am    1  UNL1       -0.2421
     14 C          62.6505   83.4421   13.0631 C.3     1  UNL1        0.1375
     15 C          62.9633   83.7180   11.6223 C.ar    1  UNL1       -0.0008
     16 C          64.0926   82.9963   10.9485 C.ar    1  UNL1       -0.0026
     17 C          64.4054   83.2722    9.5077 C.ar    1  UNL1       -0.0003
     18 C          63.5891   84.2696    8.7406 C.ar    1  UNL1       -0.0000
     19 C          62.4597   84.9914    9.4143 C.ar    1  UNL1       -0.0003
     20 C          62.1469   84.7155   10.8551 C.ar    1  UNL1       -0.0026
     21 N          64.9386   90.0030   13.8039 N.am    1  UNL1       -0.3024
     22 C          64.6683   90.8199   12.5752 C.2     1  UNL1        0.2474
     23 O          63.8715   90.2359   11.4465 O.2     1  UNL1       -0.2701
     24 H          65.4616   90.3863   14.5447 H       1  UNL1        0.1497
     25 C          65.1949   92.2209   12.4753 C.ar    1  UNL1        0.0740
     26 C          64.8159   93.0831   11.3079 C.ar    1  UNL1        0.0267
     27 C          65.3426   94.4841   11.2080 C.ar    1  UNL1        0.0991
     28 N          66.2482   95.0228   12.2755 N.ar    1  UNL1       -0.2422
     29 C          66.6271   94.1606   13.4430 C.ar    1  UNL1        0.1013
     30 C          67.5327   94.6994   14.5105 C.ar    1  UNL1        0.0519
     31 C          67.9117   93.8372   15.6779 C.ar    1  UNL1        0.1607
     32 F          68.8173   94.3759   16.7455 F       1  UNL1       -0.2025
     33 C          67.3851   92.4361   15.7779 C.ar    1  UNL1        0.1285
     34 N          66.4795   91.8974   14.7103 N.ar    1  UNL1       -0.2398
     35 C          66.1005   92.7597   13.5428 C.ar    1  UNL1        0.1034
@<TRIPOS>BOND
     1     7     8    1
     2     8     9    1
     3     8    10    1
     4    10    11    1
     5    11    12    2
     6    11    13   am
     7     1    13    1
     8     1     2    1
     9     2     3    1
    10     3     4    1
    11     4    21    1
    12    21    22   am
    13    22    23    2
    14    22    25    1
    15    25    26   ar
    16    26    27   ar
    17    27    28   ar
    18    28    29   ar
    19    29    30   ar
    20    30    31   ar
    21    31    32    1
    22    31    33   ar
    23    33    34   ar
    24    34    35   ar
    25     4     5    1
    26     5     6    1
    27    13    14    1
    28    14    15    1
    29    15    16   ar
    30    16    17   ar
    31    17    18   ar
    32    18    19   ar
    33    19    20   ar
    34    14     8    1
    35    20    15   ar
    36     6     1    1
    37    35    25   ar
    38    35    29   ar
    39    21    24    1
@<TRIPOS>MOLECULE
*****
 35 39 0 0 0
SMALL
GASTEIGER

@<TRIPOS>ATOM
      1 C          60.6237   93.0574    2.2486 C.3     1  UNL1        0.0790
      2 C          59.5091   92.9972    3.2507 C.3     1  UNL1        0.0216
      3 C          59.6283   92.1074    4.4525 C.3     1  UNL1        0.0213
      4 C          60.8621   91.2780    4.6521 C.3     1  UNL1        0.0720
      5 C          61.9766   91.3382    3.6500 C.3     1  UNL1        0.0213
      6 C          61.8574   92.2280    2.4483 C.3     1  UNL1        0.0216
      7 C          60.7252   96.4488   -1.8661 C.3     1  UNL1        0.0458
      8 C          60.9819   95.6294   -0.6361 C.3     1  UNL1        0.1581
      9 C          62.2500   96.4270   -0.5607 C.3     1  UNL1        0.0458
     10 O          59.6600   95.0031   -0.9687 O.3     1  UNL1       -0.4398
     11 C          59.3650   93.9634    0.0715 C.2     1  UNL1        0.4049
     12 O          58.1447   93.0928    0.1265 O.2     1  UNL1       -0.2262
     13 N          60.5044   93.9471    1.0469 N.am    1  UNL1       -0.2421
     14 C          61.5037   94.9767    0.6096 C.3     1  UNL1        0.1375
     15 C          62.7977   95.2975    1.2972 C.ar    1  UNL1       -0.0008
     16 C          63.9750   94.3805    1.1454 C.ar    1  UNL1       -0.0026
     17 C          65.2690   94.7012    1.8330 C.ar    1  UNL1       -0.0003
     18 C          65.3857   95.9388    2.6724 C.ar    1  UNL1       -0.0000
     19 C          64.2083   96.8558    2.8243 C.ar    1  UNL1       -0.0003
     20 C          62.9143   96.5351    2.1367 C.ar    1  UNL1       -0.0026
     21 N          60.9813   90.3883    5.8538 N.am    1  UNL1       -0.3024
     22 C          59.7483   89.8203    6.4918 C.2     1  UNL1        0.2474
     23 O          58.3960   90.1420    5.9281 O.2     1  UNL1       -0.2701
     24 H          61.8688   90.1771    6.2239 H       1  UNL1        0.1497
     25 C          59.8676   88.9305    7.6936 C.ar    1  UNL1        0.0740
     26 C          59.0683   87.6636    7.7711 C.ar    1  UNL1        0.0267
     27 C          59.1876   86.7739    8.9728 C.ar    1  UNL1        0.0991
     28 N          60.1062   87.1512   10.0970 N.ar    1  UNL1       -0.2422
     29 C          60.9054   88.4181   10.0195 C.ar    1  UNL1        0.1013
     30 C          61.8240   88.7953   11.1438 C.ar    1  UNL1        0.0519
     31 C          62.6233   90.0623   11.0663 C.ar    1  UNL1        0.1607
     32 F          63.5419   90.4395   12.1905 F       1  UNL1       -0.2025
     33 C          62.5040   90.9520    9.8645 C.ar    1  UNL1        0.1285
     34 N          61.5854   90.5748    8.7403 N.ar    1  UNL1       -0.2398
     35 C          60.7861   89.3078    8.8178 C.ar    1  UNL1        0.1034
@<TRIPOS>BOND
     1     7     8    1
     2     8     9    1
     3     8    10    1
     4    10    11    1
     5    11    12    2
     6    11    13   am
     7     1    13    1
     8     1     2    1
     9     2     3    1
    10     3     4    1
    11     4    21    1
    12    21    22   am
    13    22    23    2
    14    22    25    1
    15    25    26   ar
    16    26    27   ar
    17    27    28   ar
    18    28    29   ar
    19    29    30   ar
    20    30    31   ar
    21    31    32    1
    22    31    33   ar
    23    33    34   ar
    24    34    35   ar
    25     4     5    1
    26     5     6    1
    27    13    14    1
    28    14    15    1
    29    15    16   ar
    30    16    17   ar
    31    17    18   ar
    32    18    19   ar
    33    19    20   ar
    34    14     8    1
    35    20    15   ar
    36     6     1    1
    37    35    25   ar
    38    35    29   ar
    39    21    24    1
@<TRIPOS>MOLECULE
*****
 35 39 0 0 0
SMALL
GASTEIGER

@<TRIPOS>ATOM
      1 C          61.3386   88.6575    9.8970 C.3     1  UNL1        0.0790
      2 C          60.6064   88.8439   11.1928 C.3     1  UNL1        0.0216
      3 C          61.2122   89.6767   12.2835 C.3     1  UNL1        0.0213
      4 C          62.5502   90.3230   12.0783 C.3     1  UNL1        0.0720
      5 C          63.2824   90.1365   10.7824 C.3     1  UNL1        0.0213
      6 C          62.6765   89.3038    9.6918 C.3     1  UNL1        0.0216
      7 C          59.5146   85.2472    6.2247 C.3     1  UNL1        0.0458
      8 C          60.2008   85.9518    7.3573 C.3     1  UNL1        0.1581
      9 C          60.8581   84.6218    7.5788 C.3     1  UNL1        0.0458
     10 O          59.4001   87.1346    6.8989 O.3     1  UNL1       -0.4398
     11 C          59.7289   88.2921    7.7945 C.2     1  UNL1        0.4049
     12 O          59.1546   89.6742    7.6956 O.2     1  UNL1       -0.2262
     13 N          60.7328   87.8247    8.8064 N.am    1  UNL1       -0.2421
     14 C          61.0244   86.3784    8.5362 C.3     1  UNL1        0.1375
     15 C          61.9731   85.5109    9.3091 C.ar    1  UNL1       -0.0008
     16 C          63.1217   84.8467    8.6093 C.ar    1  UNL1       -0.0026
     17 C          64.0704   83.9792    9.3822 C.ar    1  UNL1       -0.0003
     18 C          63.8706   83.7758   10.8548 C.ar    1  UNL1       -0.0000
     19 C          62.7220   84.4400   11.5547 C.ar    1  UNL1       -0.0003
     20 C          61.7733   85.3075   10.7818 C.ar    1  UNL1       -0.0026
     21 N          63.1560   91.1558   13.1689 N.am    1  UNL1       -0.3024
     22 C          64.1005   90.5312   14.1527 C.2     1  UNL1        0.2474
     23 O          64.4391   89.0739   14.0459 O.2     1  UNL1       -0.2701
     24 H          62.9338   92.1123   13.2390 H       1  UNL1        0.1497
     25 C          64.7063   91.3640   15.2434 C.ar    1  UNL1        0.0740
     26 C          63.9020   91.7020   16.4635 C.ar    1  UNL1        0.0267
     27 C          64.5079   92.5348   17.5541 C.ar    1  UNL1        0.0991
     28 N          65.9180   93.0296   17.4245 N.ar    1  UNL1       -0.2422
     29 C          66.7222   92.6916   16.2043 C.ar    1  UNL1        0.1013
     30 C          68.1323   93.1864   16.0747 C.ar    1  UNL1        0.0519
     31 C          68.9366   92.8484   14.8545 C.ar    1  UNL1        0.1607
     32 F          70.3467   93.3432   14.7249 F       1  UNL1       -0.2025
     33 C          68.3308   92.0156   13.7639 C.ar    1  UNL1        0.1285
     34 N          66.9207   91.5208   13.8935 N.ar    1  UNL1       -0.2398
     35 C          66.1164   91.8588   15.1137 C.ar    1  UNL1        0.1034
@<TRIPOS>BOND
     1     7     8    1
     2     8     9    1
     3     8    10    1
     4    10    11    1
     5    11    12    2
     6    11    13   am
     7     1    13    1
     8     1     2    1
     9     2     3    1
    10     3     4    1
    11     4    21    1
    12    21    22   am
    13    22    23    2
    14    22    25    1
    15    25    26   ar
    16    26    27   ar
    17    27    28   ar
    18    28    29   ar
    19    29    30   ar
    20    30    31   ar
    21    31    32    1
    22    31    33   ar
    23    33    34   ar
    24    34    35   ar
    25     4     5    1
    26     5     6    1
    27    13    14    1
    28    14    15    1
    29    15    16   ar
    30    16    17   ar
    31    17    18   ar
    32    18    19   ar
    33    19    20   ar
    34    14     8    1
    35    20    15   ar
    36     6     1    1
    37    35    25   ar
    38    35    29   ar
    39    21    24    1
@<TRIPOS>MOLECULE
*****
 35 39 0 0 0
SMALL
GASTEIGER

@<TRIPOS>ATOM
      1 C          63.8726   84.1560   13.4618 C.3     1  UNL1        0.0790
      2 C          65.1939   84.4373   14.1137 C.3     1  UNL1        0.0216
      3 C          65.4216   85.7440   14.8141 C.3     1  UNL1        0.0213
      4 C          64.3280   86.7695   14.8627 C.3     1  UNL1        0.0720
      5 C          63.0066   86.4882   14.2107 C.3     1  UNL1        0.0213
      6 C          62.7789   85.1815   13.5103 C.3     1  UNL1        0.0216
      7 C          62.9222   79.8301   10.4910 C.3     1  UNL1        0.0458
      8 C          63.1100   81.2067   11.0566 C.3     1  UNL1        0.1581
      9 C          62.7017   81.6552    9.6848 C.3     1  UNL1        0.0458
     10 O          63.4791   80.4703   12.3103 O.3     1  UNL1       -0.4398
     11 C          63.8097   81.4856   13.3639 C.2     1  UNL1        0.4049
     12 O          64.2310   81.1891   14.7726 O.2     1  UNL1       -0.2262
     13 N          63.6449   82.8493   12.7613 N.am    1  UNL1       -0.2421
     14 C          63.2125   82.6770   11.3354 C.3     1  UNL1        0.1375
     15 C          62.9318   83.7810   10.3596 C.ar    1  UNL1       -0.0008
     16 C          61.8173   84.7496   10.6232 C.ar    1  UNL1       -0.0026
     17 C          61.5367   85.8537    9.6473 C.ar    1  UNL1       -0.0003
     18 C          62.3704   85.9891    8.4079 C.ar    1  UNL1       -0.0000
     19 C          63.4850   85.0205    8.1442 C.ar    1  UNL1       -0.0003
     20 C          63.7657   83.9164    9.1200 C.ar    1  UNL1       -0.0026
     21 N          64.5556   88.0762   15.5631 N.am    1  UNL1       -0.3024
     22 C          64.4486   89.3641   14.8014 C.2     1  UNL1        0.2474
     23 O          64.1140   89.3452   13.3394 O.2     1  UNL1       -0.2701
     24 H          64.7753   88.0887   16.5227 H       1  UNL1        0.1497
     25 C          64.6763   90.6708   15.5019 C.ar    1  UNL1        0.0740
     26 C          63.6045   91.2492   16.3775 C.ar    1  UNL1        0.0267
     27 C          63.8322   92.5559   17.0779 C.ar    1  UNL1        0.0991
     28 N          65.1317   93.2842   16.9028 N.ar    1  UNL1       -0.2422
     29 C          66.2036   92.7058   16.0273 C.ar    1  UNL1        0.1013
     30 C          67.5032   93.4342   15.8522 C.ar    1  UNL1        0.0519
     31 C          68.5750   92.8558   14.9767 C.ar    1  UNL1        0.1607
     32 F          69.8746   93.5841   14.8017 F       1  UNL1       -0.2025
     33 C          68.3474   91.5490   14.2762 C.ar    1  UNL1        0.1285
     34 N          67.0478   90.8207   14.4513 N.ar    1  UNL1       -0.2398
     35 C          65.9759   91.3991   15.3269 C.ar    1  UNL1        0.1034
@<TRIPOS>BOND
     1     7     8    1
     2     8     9    1
     3     8    10    1
     4    10    11    1
     5    11    12    2
     6    11    13   am
     7     1    13    1
     8     1     2    1
     9     2     3    1
    10     3     4    1
    11     4    21    1
    12    21    22   am
    13    22    23    2
    14    22    25    1
    15    25    26   ar
    16    26    27   ar
    17    27    28   ar
    18    28    29   ar
    19    29    30   ar
    20    30    31   ar
    21    31    32    1
    22    31    33   ar
    23    33    34   ar
    24    34    35   ar
    25     4     5    1
    26     5     6    1
    27    13    14    1
    28    14    15    1
    29    15    16   ar
    30    16    17   ar
    31    17    18   ar
    32    18    19   ar
    33    19    20   ar
    34    14     8    1
    35    20    15   ar
    36     6     1    1
    37    35    25   ar
    38    35    29   ar
    39    21    24    1
