@<TRIPOS>MOLECULE
*****
 30 34 0 0 0
SMALL
GASTEIGER

@<TRIPOS>ATOM
      1 C          62.4653   89.3974   11.6041 C.3     1  UNL1        0.1560
      2 C          63.2033   89.8835   12.8163 C.ar    1  UNL1        0.1834
      3 N          62.9995   89.4052   14.2233 N.ar    1  UNL1       -0.1298
      4 N          63.9448   90.1593   15.1108 N.ar    1  UNL1       -0.1272
      5 C          64.7329   91.1038   14.2522 C.ar    1  UNL1        0.1864
      6 C          65.8085   92.0969   14.5785 C.ar    1  UNL1        0.0423
      7 C          66.4260   92.9197   13.4868 C.ar    1  UNL1        0.0246
      8 C          65.9676   92.7493   12.0687 C.ar    1  UNL1        0.1089
      9 N          64.8919   91.7561   11.7424 N.ar    1  UNL1       -0.1620
     10 N          64.2746   90.9333   12.8342 N.ar    1  UNL1       -0.1935
     11 C          66.5850   93.5720   10.9770 C.ar    1  UNL1        0.0679
     12 C          66.4350   95.0536   10.7974 C.ar    1  UNL1        0.0248
     13 C          67.2180   95.4549    9.5825 C.ar    1  UNL1        0.0678
     14 C          67.3449   96.8456    9.0350 C.3     1  UNL1        0.0528
     15 N          67.8520   94.2212    9.0113 N.ar    1  UNL1       -0.2134
     16 S          67.4607   93.0576    9.8731 S.2     1  UNL1        0.0142
     17 N          61.7017   88.1075   11.6582 N.pl3   1  UNL1       -0.3252
     18 H          60.8983   88.0344   12.2225 H       1  UNL1        0.1473
     19 C          63.2949   83.0953   12.9188 C.ar    1  UNL1        0.1593
     20 C          62.8345   84.2738   13.7244 C.ar    1  UNL1        0.1357
     21 N          62.4569   85.5517   13.0357 N.ar    1  UNL1       -0.2379
     22 C          62.5397   85.6511   11.5413 C.ar    1  UNL1        0.1122
     23 C          62.1621   86.9290   10.8526 C.ar    1  UNL1        0.0659
     24 C          62.2450   87.0284    9.3582 C.ar    1  UNL1        0.0365
     25 C          62.7054   85.8499    8.5525 C.ar    1  UNL1        0.1002
     26 N          63.0830   84.5720    9.2412 N.ar    1  UNL1       -0.2421
     27 C          63.0001   84.4726   10.7357 C.ar    1  UNL1        0.1032
     28 C          63.3777   83.1947   11.4244 C.ar    1  UNL1        0.0592
     29 C          62.8497   80.5809   13.3978 C.3     1  UNL1        0.2525
     30 O          63.6725   81.8174   13.6076 O.3     1  UNL1       -0.4698
@<TRIPOS>BOND
     1    29    30    1
     2    30    19    1
     3    19    20   ar
     4    20    21   ar
     5    21    22   ar
     6    22    23   ar
     7    23    17    1
     8    17     1    1
     9     1     2    1
    10     2     3   ar
    11     3     4   ar
    12     4     5   ar
    13     5     6   ar
    14     6     7   ar
    15     7     8   ar
    16     8    11    1
    17    11    12   ar
    18    12    13   ar
    19    13    14    1
    20    13    15   ar
    21    15    16   ar
    22     8     9   ar
    23     9    10   ar
    24    23    24   ar
    25    24    25   ar
    26    25    26   ar
    27    26    27   ar
    28    27    28   ar
    29    28    19   ar
    30    27    22   ar
    31    10     2   ar
    32    10     5   ar
    33    16    11   ar
    34    17    18    1
@<TRIPOS>MOLECULE
*****
 30 34 0 0 0
SMALL
GASTEIGER

@<TRIPOS>ATOM
      1 C          64.4928   89.5984   15.0960 C.3     1  UNL1        0.1560
      2 C          64.5305   90.5901   13.9711 C.ar    1  UNL1        0.1834
      3 N          65.2223   91.9208   13.9916 N.ar    1  UNL1       -0.1298
      4 N          65.0023   92.5782   12.6614 N.ar    1  UNL1       -0.1272
      5 C          64.1744   91.6538   11.8188 C.ar    1  UNL1        0.1864
      6 C          63.6484   91.7721   10.4191 C.ar    1  UNL1        0.0423
      7 C          62.8308   90.6617    9.8287 C.ar    1  UNL1        0.0246
      8 C          62.5392   89.4330   10.6381 C.ar    1  UNL1        0.1089
      9 N          63.0652   89.3147   12.0379 N.ar    1  UNL1       -0.1620
     10 N          63.8828   90.4251   12.6282 N.ar    1  UNL1       -0.1935
     11 C          61.7216   88.3226   10.0478 C.ar    1  UNL1        0.0679
     12 C          60.6184   88.4779    9.0434 C.ar    1  UNL1        0.0248
     13 C          60.0786   87.1132    8.7330 C.ar    1  UNL1        0.0678
     14 C          58.9647   86.8019    7.7778 C.3     1  UNL1        0.0528
     15 N          60.8482   86.1145    9.5456 N.ar    1  UNL1       -0.2134
     16 S          61.8636   86.8619   10.3582 S.2     1  UNL1        0.0142
     17 N          64.6215   88.1321   14.8076 N.pl3   1  UNL1       -0.3252
     18 H          65.2316   87.8211   14.1003 H       1  UNL1        0.1473
     19 C          63.2935   82.9428   14.0604 C.ar    1  UNL1        0.1593
     20 C          64.0945   83.9355   13.2711 C.ar    1  UNL1        0.1357
     21 N          64.2701   85.3343   13.7833 N.ar    1  UNL1       -0.2379
     22 C          63.6448   85.7405   15.0848 C.ar    1  UNL1        0.1122
     23 C          63.8205   87.1394   15.5970 C.ar    1  UNL1        0.0659
     24 C          63.1952   87.5456   16.8985 C.ar    1  UNL1        0.0365
     25 C          62.3942   86.5529   17.6878 C.ar    1  UNL1        0.1002
     26 N          62.2185   85.1541   17.1757 N.ar    1  UNL1       -0.2421
     27 C          62.8439   84.7479   15.8741 C.ar    1  UNL1        0.1032
     28 C          62.6682   83.3490   15.3619 C.ar    1  UNL1        0.0592
     29 C          61.8149   80.8291   13.7511 C.3     1  UNL1        0.2525
     30 O          63.1179   81.5440   13.5482 O.3     1  UNL1       -0.4698
@<TRIPOS>BOND
     1    29    30    1
     2    30    19    1
     3    19    20   ar
     4    20    21   ar
     5    21    22   ar
     6    22    23   ar
     7    23    17    1
     8    17     1    1
     9     1     2    1
    10     2     3   ar
    11     3     4   ar
    12     4     5   ar
    13     5     6   ar
    14     6     7   ar
    15     7     8   ar
    16     8    11    1
    17    11    12   ar
    18    12    13   ar
    19    13    14    1
    20    13    15   ar
    21    15    16   ar
    22     8     9   ar
    23     9    10   ar
    24    23    24   ar
    25    24    25   ar
    26    25    26   ar
    27    26    27   ar
    28    27    28   ar
    29    28    19   ar
    30    27    22   ar
    31    10     2   ar
    32    10     5   ar
    33    16    11   ar
    34    17    18    1
@<TRIPOS>MOLECULE
*****
 30 34 0 0 0
SMALL
GASTEIGER

@<TRIPOS>ATOM
      1 C          62.8998   90.1233   13.1913 C.3     1  UNL1        0.1560
      2 C          62.4171   89.6100   11.8671 C.ar    1  UNL1        0.1834
      3 N          61.8940   90.4443   10.7356 N.ar    1  UNL1       -0.1298
      4 N          61.5264   89.5221    9.6111 N.ar    1  UNL1       -0.1272
      5 C          61.8222   88.1178   10.0477 C.ar    1  UNL1        0.1864
      6 C          61.6615   86.7968    9.3558 C.ar    1  UNL1        0.0423
      7 C          62.0512   85.5299   10.0581 C.ar    1  UNL1        0.0246
      8 C          62.6017   85.5842   11.4523 C.ar    1  UNL1        0.1089
      9 N          62.7624   86.9053   12.1443 N.ar    1  UNL1       -0.1620
     10 N          62.3727   88.1721   11.4419 N.ar    1  UNL1       -0.1935
     11 C          62.9914   84.3174   12.1547 C.ar    1  UNL1        0.0679
     12 C          62.3930   82.9614   11.9239 C.ar    1  UNL1        0.0248
     13 C          63.0798   81.9901   12.8377 C.ar    1  UNL1        0.0678
     14 C          62.7939   80.5210   12.9383 C.3     1  UNL1        0.0528
     15 N          64.1025   82.7458   13.6332 N.ar    1  UNL1       -0.2134
     16 S          64.0479   84.1841   13.2111 S.2     1  UNL1        0.0142
     17 N          64.3547   90.0337   13.5453 N.pl3   1  UNL1       -0.3252
     18 H          64.8035   89.1576   13.5646 H       1  UNL1        0.1473
     19 C          65.9786   94.3013   10.6471 C.ar    1  UNL1        0.1593
     20 C          65.2076   93.0563   10.3225 C.ar    1  UNL1        0.1357
     21 N          64.9233   92.0488   11.3968 N.ar    1  UNL1       -0.2379
     22 C          65.4100   92.2862   12.7956 C.ar    1  UNL1        0.1122
     23 C          65.1257   91.2787   13.8698 C.ar    1  UNL1        0.0659
     24 C          65.6125   91.5162   15.2686 C.ar    1  UNL1        0.0365
     25 C          66.3836   92.7612   15.5932 C.ar    1  UNL1        0.1002
     26 N          66.6678   93.7688   14.5189 N.ar    1  UNL1       -0.2421
     27 C          66.1811   93.5313   13.1201 C.ar    1  UNL1        0.1032
     28 C          66.4654   94.5388   12.0458 C.ar    1  UNL1        0.0592
     29 C          67.5479   95.2410    8.8020 C.3     1  UNL1        0.2525
     30 O          66.2629   95.3089    9.5728 O.3     1  UNL1       -0.4698
@<TRIPOS>BOND
     1    29    30    1
     2    30    19    1
     3    19    20   ar
     4    20    21   ar
     5    21    22   ar
     6    22    23   ar
     7    23    17    1
     8    17     1    1
     9     1     2    1
    10     2     3   ar
    11     3     4   ar
    12     4     5   ar
    13     5     6   ar
    14     6     7   ar
    15     7     8   ar
    16     8    11    1
    17    11    12   ar
    18    12    13   ar
    19    13    14    1
    20    13    15   ar
    21    15    16   ar
    22     8     9   ar
    23     9    10   ar
    24    23    24   ar
    25    24    25   ar
    26    25    26   ar
    27    26    27   ar
    28    27    28   ar
    29    28    19   ar
    30    27    22   ar
    31    10     2   ar
    32    10     5   ar
    33    16    11   ar
    34    17    18    1
@<TRIPOS>MOLECULE
*****
 30 34 0 0 0
SMALL
GASTEIGER

@<TRIPOS>ATOM
      1 C          64.3193   87.3407   14.7727 C.3     1  UNL1        0.1560
      2 C          64.0942   88.6703   14.1156 C.ar    1  UNL1        0.1834
      3 N          64.4940   90.0060   14.6687 N.ar    1  UNL1       -0.1298
      4 N          64.0766   91.0587   13.6850 N.ar    1  UNL1       -0.1272
      5 C          63.4188   90.3736   12.5240 C.ar    1  UNL1        0.1864
      6 C          62.8114   90.9031   11.2589 C.ar    1  UNL1        0.0423
      7 C          62.2148   89.9565   10.2598 C.ar    1  UNL1        0.0246
      8 C          62.2257   88.4804   10.5259 C.ar    1  UNL1        0.1089
      9 N          62.8332   87.9508   11.7911 N.ar    1  UNL1       -0.1620
     10 N          63.4297   88.8974   12.7901 N.ar    1  UNL1       -0.1935
     11 C          61.6292   87.5337    9.5269 C.ar    1  UNL1        0.0679
     12 C          62.3811   86.5259    8.7092 C.ar    1  UNL1        0.0248
     13 C          61.3926   85.7980    7.8471 C.ar    1  UNL1        0.0678
     14 C          61.7111   84.7041    6.8714 C.3     1  UNL1        0.0528
     15 N          60.0298   86.3561    8.1321 N.ar    1  UNL1       -0.2134
     16 S          60.1760   87.4288    9.1703 S.2     1  UNL1        0.0142
     17 N          64.5323   86.1159   13.9334 N.pl3   1  UNL1       -0.3252
     18 H          65.1879   86.1302   13.1991 H       1  UNL1        0.1473
     19 C          63.3305   81.7115   11.0339 C.ar    1  UNL1        0.1593
     20 C          64.1164   82.9581   10.7544 C.ar    1  UNL1        0.1357
     21 N          64.2550   84.0107   11.8141 N.ar    1  UNL1       -0.2379
     22 C          63.6077   83.8167   13.1532 C.ar    1  UNL1        0.1122
     23 C          63.7463   84.8692   14.2128 C.ar    1  UNL1        0.0659
     24 C          63.0990   84.6752   15.5519 C.ar    1  UNL1        0.0365
     25 C          62.3130   83.4285   15.8315 C.ar    1  UNL1        0.1002
     26 N          62.1744   82.3759   14.7718 N.ar    1  UNL1       -0.2421
     27 C          62.8218   82.5700   13.4326 C.ar    1  UNL1        0.1032
     28 C          62.6831   81.5175   12.3730 C.ar    1  UNL1        0.0592
     29 C          62.7960   79.2622   10.3517 C.3     1  UNL1        0.2525
     30 O          63.1918   80.6589    9.9742 O.3     1  UNL1       -0.4698
@<TRIPOS>BOND
     1    29    30    1
     2    30    19    1
     3    19    20   ar
     4    20    21   ar
     5    21    22   ar
     6    22    23   ar
     7    23    17    1
     8    17     1    1
     9     1     2    1
    10     2     3   ar
    11     3     4   ar
    12     4     5   ar
    13     5     6   ar
    14     6     7   ar
    15     7     8   ar
    16     8    11    1
    17    11    12   ar
    18    12    13   ar
    19    13    14    1
    20    13    15   ar
    21    15    16   ar
    22     8     9   ar
    23     9    10   ar
    24    23    24   ar
    25    24    25   ar
    26    25    26   ar
    27    26    27   ar
    28    27    28   ar
    29    28    19   ar
    30    27    22   ar
    31    10     2   ar
    32    10     5   ar
    33    16    11   ar
    34    17    18    1
@<TRIPOS>MOLECULE
*****
 30 34 0 0 0
SMALL
GASTEIGER

@<TRIPOS>ATOM
      1 C          63.3050   83.9402   14.2204 C.3     1  UNL1        0.1560
      2 C          63.6106   83.6429   12.7821 C.ar    1  UNL1        0.1834
      3 N          64.4177   82.4856   12.2732 N.ar    1  UNL1       -0.1298
      4 N          64.4686   82.5782   10.7770 N.ar    1  UNL1       -0.1272
      5 C          63.6928   83.7930   10.3611 C.ar    1  UNL1        0.1864
      6 C          63.4009   84.3848    9.0142 C.ar    1  UNL1        0.0423
      7 C          62.5786   85.6348    8.9064 C.ar    1  UNL1        0.0246
      8 C          62.0483   86.2928   10.1457 C.ar    1  UNL1        0.1089
      9 N          62.3403   85.7008   11.4927 N.ar    1  UNL1       -0.1620
     10 N          63.1626   84.4509   11.6004 N.ar    1  UNL1       -0.1935
     11 C          61.2261   87.5427   10.0381 C.ar    1  UNL1        0.0679
     12 C          60.8381   88.4433   11.1731 C.ar    1  UNL1        0.0248
     13 C          60.0197   89.5687   10.6129 C.ar    1  UNL1        0.0678
     14 C          59.4237   90.7004   11.3965 C.3     1  UNL1        0.0528
     15 N          59.9018   89.3635    9.1317 N.ar    1  UNL1       -0.2134
     16 S          60.6474   88.1114    8.7764 S.2     1  UNL1        0.0142
     17 N          64.2759   84.7321   15.0452 N.pl3   1  UNL1       -0.3252
     18 H          65.2387   84.5318   14.9994 H       1  UNL1        0.1473
     19 C          63.7796   90.0887   14.4881 C.ar    1  UNL1        0.1593
     20 C          64.2757   88.9916   13.5937 C.ar    1  UNL1        0.1357
     21 N          64.2758   87.5718   14.0775 N.ar    1  UNL1       -0.2379
     22 C          63.7797   87.2491   15.4558 C.ar    1  UNL1        0.1122
     23 C          63.7798   85.8293   15.9396 C.ar    1  UNL1        0.0659
     24 C          63.2837   85.5066   17.3179 C.ar    1  UNL1        0.0365
     25 C          62.7875   86.6037   18.2125 C.ar    1  UNL1        0.1002
     26 N          62.7875   88.0236   17.7286 N.ar    1  UNL1       -0.2421
     27 C          63.2836   88.3462   16.3503 C.ar    1  UNL1        0.1032
     28 C          63.2836   89.7661   15.8664 C.ar    1  UNL1        0.0592
     29 C          64.8072   91.9622   13.0103 C.3     1  UNL1        0.2525
     30 O          63.7796   91.5086   14.0043 O.3     1  UNL1       -0.4698
@<TRIPOS>BOND
     1    29    30    1
     2    30    19    1
     3    19    20   ar
     4    20    21   ar
     5    21    22   ar
     6    22    23   ar
     7    23    17    1
     8    17     1    1
     9     1     2    1
    10     2     3   ar
    11     3     4   ar
    12     4     5   ar
    13     5     6   ar
    14     6     7   ar
    15     7     8   ar
    16     8    11    1
    17    11    12   ar
    18    12    13   ar
    19    13    14    1
    20    13    15   ar
    21    15    16   ar
    22     8     9   ar
    23     9    10   ar
    24    23    24   ar
    25    24    25   ar
    26    25    26   ar
    27    26    27   ar
    28    27    28   ar
    29    28    19   ar
    30    27    22   ar
    31    10     2   ar
    32    10     5   ar
    33    16    11   ar
    34    17    18    1
@<TRIPOS>MOLECULE
*****
 30 34 0 0 0
SMALL
GASTEIGER

@<TRIPOS>ATOM
      1 C          62.7675   89.7476   12.7511 C.3     1  UNL1        0.1560
      2 C          62.3424   89.0386   11.4994 C.ar    1  UNL1        0.1834
      3 N          61.8761   89.6908   10.2317 N.ar    1  UNL1       -0.1298
      4 N          61.5545   88.6081    9.2445 N.ar    1  UNL1       -0.1272
      5 C          61.8220   87.2867    9.9022 C.ar    1  UNL1        0.1864
      6 C          61.6851   85.8758    9.4122 C.ar    1  UNL1        0.0423
      7 C          62.0352   84.7306   10.3157 C.ar    1  UNL1        0.0246
      8 C          62.5221   84.9967   11.7093 C.ar    1  UNL1        0.1089
      9 N          62.6590   86.4078   12.1993 N.ar    1  UNL1       -0.1620
     10 N          62.3089   87.5528   11.2958 N.ar    1  UNL1       -0.1935
     11 C          62.8721   83.8517   12.6128 C.ar    1  UNL1        0.0679
     12 C          62.4789   82.4182   12.4121 C.ar    1  UNL1        0.0248
     13 C          63.0406   81.6197   13.5510 C.ar    1  UNL1        0.0678
     14 C          62.8887   80.1407   13.7503 C.3     1  UNL1        0.0528
     15 N          63.7810   82.5597   14.4555 N.ar    1  UNL1       -0.2134
     16 S          63.6769   83.9392   13.8757 S.2     1  UNL1        0.0142
     17 N          62.9662   91.2343   12.7402 N.pl3   1  UNL1       -0.3252
     18 H          62.2302   91.8313   13.0071 H       1  UNL1        0.1473
     19 C          67.3477   92.9075   15.4334 C.ar    1  UNL1        0.1593
     20 C          66.0277   92.3303   15.8509 C.ar    1  UNL1        0.1357
     21 N          65.0072   91.9650   14.8140 N.ar    1  UNL1       -0.2379
     22 C          65.3067   92.1768   13.3596 C.ar    1  UNL1        0.1122
     23 C          64.2862   91.8115   12.3227 C.ar    1  UNL1        0.0659
     24 C          64.5858   92.0234   10.8683 C.ar    1  UNL1        0.0365
     25 C          65.9058   92.6007   10.4507 C.ar    1  UNL1        0.1002
     26 N          66.9263   92.9660   11.4876 N.ar    1  UNL1       -0.2421
     27 C          66.6267   92.7540   12.9421 C.ar    1  UNL1        0.1032
     28 C          67.6472   93.1194   13.9790 C.ar    1  UNL1        0.0592
     29 C          69.6224   93.9905   16.0681 C.3     1  UNL1        0.2525
     30 O          68.3682   93.2728   16.4703 O.3     1  UNL1       -0.4698
@<TRIPOS>BOND
     1    29    30    1
     2    30    19    1
     3    19    20   ar
     4    20    21   ar
     5    21    22   ar
     6    22    23   ar
     7    23    17    1
     8    17     1    1
     9     1     2    1
    10     2     3   ar
    11     3     4   ar
    12     4     5   ar
    13     5     6   ar
    14     6     7   ar
    15     7     8   ar
    16     8    11    1
    17    11    12   ar
    18    12    13   ar
    19    13    14    1
    20    13    15   ar
    21    15    16   ar
    22     8     9   ar
    23     9    10   ar
    24    23    24   ar
    25    24    25   ar
    26    25    26   ar
    27    26    27   ar
    28    27    28   ar
    29    28    19   ar
    30    27    22   ar
    31    10     2   ar
    32    10     5   ar
    33    16    11   ar
    34    17    18    1
@<TRIPOS>MOLECULE
*****
 30 34 0 0 0
SMALL
GASTEIGER

@<TRIPOS>ATOM
      1 C          61.5000   89.1814    9.9536 C.3     1  UNL1        0.1560
      2 C          62.5144   90.1215   10.5344 C.ar    1  UNL1        0.1834
      3 N          63.0382   91.3663    9.8818 N.ar    1  UNL1       -0.1298
      4 N          64.0305   91.9959   10.8139 N.ar    1  UNL1       -0.1272
      5 C          64.1200   91.1402   12.0427 C.ar    1  UNL1        0.1864
      6 C          64.9336   91.2662   13.2964 C.ar    1  UNL1        0.0423
      7 C          64.8103   90.2337   14.3776 C.ar    1  UNL1        0.0246
      8 C          63.8732   89.0752   14.2048 C.ar    1  UNL1        0.1089
      9 N          63.0596   88.9492   12.9510 N.ar    1  UNL1       -0.1620
     10 N          63.1830   89.9817   11.8699 N.ar    1  UNL1       -0.1935
     11 C          63.7498   88.0427   15.2859 C.ar    1  UNL1        0.0679
     12 C          63.0843   88.2346   16.6164 C.ar    1  UNL1        0.0248
     13 C          63.1934   86.9475   17.3791 C.ar    1  UNL1        0.0678
     14 C          62.6628   86.6925   18.7587 C.3     1  UNL1        0.0528
     15 N          63.9264   85.9603   16.5199 N.ar    1  UNL1       -0.2134
     16 S          64.2703   86.6372   15.2263 S.2     1  UNL1        0.0142
     17 N          61.2763   87.8378   10.5820 N.pl3   1  UNL1       -0.3252
     18 H          60.6744   87.7506   11.3562 H       1  UNL1        0.1473
     19 C          63.0544   83.2180   12.7604 C.ar    1  UNL1        0.1593
     20 C          62.3611   84.4286   13.3115 C.ar    1  UNL1        0.1357
     21 N          61.9995   85.5650   12.4017 N.ar    1  UNL1       -0.2379
     22 C          62.3311   85.4908   10.9407 C.ar    1  UNL1        0.1122
     23 C          61.9695   86.6272   10.0309 C.ar    1  UNL1        0.0659
     24 C          62.3011   86.5531    8.5699 C.ar    1  UNL1        0.0365
     25 C          62.9944   85.3424    8.0187 C.ar    1  UNL1        0.1002
     26 N          63.3560   84.2060    8.9285 N.ar    1  UNL1       -0.2421
     27 C          63.0244   84.2802   10.3896 C.ar    1  UNL1        0.1032
     28 C          63.3860   83.1438   11.2994 C.ar    1  UNL1        0.0592
     29 C          62.3565   81.1273   14.1359 C.3     1  UNL1        0.2525
     30 O          63.4160   82.0816   13.6702 O.3     1  UNL1       -0.4698
@<TRIPOS>BOND
     1    29    30    1
     2    30    19    1
     3    19    20   ar
     4    20    21   ar
     5    21    22   ar
     6    22    23   ar
     7    23    17    1
     8    17     1    1
     9     1     2    1
    10     2     3   ar
    11     3     4   ar
    12     4     5   ar
    13     5     6   ar
    14     6     7   ar
    15     7     8   ar
    16     8    11    1
    17    11    12   ar
    18    12    13   ar
    19    13    14    1
    20    13    15   ar
    21    15    16   ar
    22     8     9   ar
    23     9    10   ar
    24    23    24   ar
    25    24    25   ar
    26    25    26   ar
    27    26    27   ar
    28    27    28   ar
    29    28    19   ar
    30    27    22   ar
    31    10     2   ar
    32    10     5   ar
    33    16    11   ar
    34    17    18    1
@<TRIPOS>MOLECULE
*****
 30 34 0 0 0
SMALL
GASTEIGER

@<TRIPOS>ATOM
      1 C          61.2336   89.6845   12.0523 C.3     1  UNL1        0.1560
      2 C          60.8724   89.1062   10.7161 C.ar    1  UNL1        0.1834
      3 N          60.0830   89.7941    9.6420 N.ar    1  UNL1       -0.1298
      4 N          59.9598   88.8516    8.4816 N.ar    1  UNL1       -0.1272
      5 C          60.6731   87.5812    8.8385 C.ar    1  UNL1        0.1864
      6 C          60.8819   86.3015    8.0845 C.ar    1  UNL1        0.0423
      7 C          61.6547   85.1791    8.7114 C.ar    1  UNL1        0.0246
      8 C          62.2187   85.3364   10.0924 C.ar    1  UNL1        0.1089
      9 N          62.0098   86.6162   10.8465 N.ar    1  UNL1       -0.1620
     10 N          61.2371   87.7386   10.2195 N.ar    1  UNL1       -0.1935
     11 C          62.9914   84.2141   10.7193 C.ar    1  UNL1        0.0679
     12 C          62.7796   83.6594   12.0968 C.ar    1  UNL1        0.0248
     13 C          63.7690   82.5518   12.3076 C.ar    1  UNL1        0.0678
     14 C          63.9103   81.7200   13.5479 C.3     1  UNL1        0.0528
     15 N          64.5923   82.4220   11.0605 N.ar    1  UNL1       -0.2134
     16 S          64.1117   83.4493   10.0789 S.2     1  UNL1        0.0142
     17 N          62.0105   90.9652   12.1299 N.pl3   1  UNL1       -0.3252
     18 H          61.6685   91.7760   11.6885 H       1  UNL1        0.1473
     19 C          66.9566   92.8124   10.9577 C.ar    1  UNL1        0.1593
     20 C          65.6586   92.7669   10.2074 C.ar    1  UNL1        0.1357
     21 N          64.4426   92.1663   10.8483 N.ar    1  UNL1       -0.2379
     22 C          64.5246   91.6113   12.2393 C.ar    1  UNL1        0.1122
     23 C          63.3086   91.0107   12.8802 C.ar    1  UNL1        0.0659
     24 C          63.3906   90.4557   14.2712 C.ar    1  UNL1        0.0365
     25 C          64.6888   90.5011   15.0216 C.ar    1  UNL1        0.1002
     26 N          65.9048   91.1017   14.3807 N.ar    1  UNL1       -0.2421
     27 C          65.8227   91.6568   12.9896 C.ar    1  UNL1        0.1032
     28 C          67.0387   92.2573   12.3488 C.ar    1  UNL1        0.0592
     29 C          68.9034   92.6616    9.2438 C.3     1  UNL1        0.2525
     30 O          68.1726   93.4129   10.3169 O.3     1  UNL1       -0.4698
@<TRIPOS>BOND
     1    29    30    1
     2    30    19    1
     3    19    20   ar
     4    20    21   ar
     5    21    22   ar
     6    22    23   ar
     7    23    17    1
     8    17     1    1
     9     1     2    1
    10     2     3   ar
    11     3     4   ar
    12     4     5   ar
    13     5     6   ar
    14     6     7   ar
    15     7     8   ar
    16     8    11    1
    17    11    12   ar
    18    12    13   ar
    19    13    14    1
    20    13    15   ar
    21    15    16   ar
    22     8     9   ar
    23     9    10   ar
    24    23    24   ar
    25    24    25   ar
    26    25    26   ar
    27    26    27   ar
    28    27    28   ar
    29    28    19   ar
    30    27    22   ar
    31    10     2   ar
    32    10     5   ar
    33    16    11   ar
    34    17    18    1
@<TRIPOS>MOLECULE
*****
 30 34 0 0 0
SMALL
GASTEIGER

@<TRIPOS>ATOM
      1 C          60.9556   89.6213   11.9035 C.3     1  UNL1        0.1560
      2 C          60.8399   88.3608   11.0986 C.ar    1  UNL1        0.1834
      3 N          61.1357   86.9733   11.5857 N.ar    1  UNL1       -0.1298
      4 N          60.8867   86.0215   10.4535 N.ar    1  UNL1       -0.1272
      5 C          60.4369   86.8208    9.2664 C.ar    1  UNL1        0.1864
      6 C          60.0500   86.4189    7.8741 C.ar    1  UNL1        0.0423
      7 C          59.6341   87.4628    6.8804 C.ar    1  UNL1        0.0246
      8 C          59.6052   88.9085    7.2791 C.ar    1  UNL1        0.1089
      9 N          59.9922   89.3104    8.6715 N.ar    1  UNL1       -0.1620
     10 N          60.4080   88.2665    9.6652 N.ar    1  UNL1       -0.1935
     11 C          59.1894   89.9524    6.2854 C.ar    1  UNL1        0.0679
     12 C          60.1103   90.7813    5.4399 C.ar    1  UNL1        0.0248
     13 C          59.2696   91.6918    4.5947 C.ar    1  UNL1        0.0678
     14 C          59.7799   92.6928    3.6008 C.3     1  UNL1        0.0528
     15 N          57.8293   91.4257    4.9179 N.ar    1  UNL1       -0.2134
     16 S          57.7796   90.3507    5.9628 S.2     1  UNL1        0.0142
     17 N          61.9917   90.6459   11.5475 N.pl3   1  UNL1       -0.3252
     18 H          61.8697   91.2136   10.7525 H       1  UNL1        0.1473
     19 C          66.6464   93.3390   10.9721 C.ar    1  UNL1        0.1593
     20 C          65.4246   93.1793   10.1168 C.ar    1  UNL1        0.1357
     21 N          64.2803   92.3349   10.5937 N.ar    1  UNL1       -0.2379
     22 C          64.3577   91.6501   11.9260 C.ar    1  UNL1        0.1122
     23 C          63.2134   90.8056   12.4029 C.ar    1  UNL1        0.0659
     24 C          63.2909   90.1209   13.7352 C.ar    1  UNL1        0.0365
     25 C          64.5127   90.2806   14.5906 C.ar    1  UNL1        0.1002
     26 N          65.6571   91.1250   14.1137 N.ar    1  UNL1       -0.2421
     27 C          65.5795   91.8098   12.7813 C.ar    1  UNL1        0.1032
     28 C          66.7238   92.6543   12.3044 C.ar    1  UNL1        0.0592
     29 C          67.6726   94.9509    9.2119 C.3     1  UNL1        0.2525
     30 O          67.7907   94.1835   10.4952 O.3     1  UNL1       -0.4698
@<TRIPOS>BOND
     1    29    30    1
     2    30    19    1
     3    19    20   ar
     4    20    21   ar
     5    21    22   ar
     6    22    23   ar
     7    23    17    1
     8    17     1    1
     9     1     2    1
    10     2     3   ar
    11     3     4   ar
    12     4     5   ar
    13     5     6   ar
    14     6     7   ar
    15     7     8   ar
    16     8    11    1
    17    11    12   ar
    18    12    13   ar
    19    13    14    1
    20    13    15   ar
    21    15    16   ar
    22     8     9   ar
    23     9    10   ar
    24    23    24   ar
    25    24    25   ar
    26    25    26   ar
    27    26    27   ar
    28    27    28   ar
    29    28    19   ar
    30    27    22   ar
    31    10     2   ar
    32    10     5   ar
    33    16    11   ar
    34    17    18    1
