@<TRIPOS>MOLECULE
*****
 50 55 0 0 0
SMALL
GASTEIGER

@<TRIPOS>ATOM
      1 N          61.3473   86.4876   11.2750 N.ar    1  UNL1       -0.3260
      2 C          62.0561   85.3137   11.8830 C.ar    1  UNL1        0.0433
      3 C          63.1394   85.8389   12.7776 C.ar    1  UNL1        0.0383
      4 C          63.1002   87.3374   12.7227 C.ar    1  UNL1        0.0256
      5 C          63.9300   88.3886   13.3983 C.ar    1  UNL1        0.0389
      6 C          63.6521   89.8407   13.1452 C.ar    1  UNL1        0.1387
      7 C          62.5445   90.2416   12.2165 C.ar    1  UNL1        0.0384
      8 C          61.7148   89.1904   11.5409 C.ar    1  UNL1        0.0203
      9 C          61.9926   87.7383   11.7940 C.ar    1  UNL1        0.0606
     10 C          60.1954   86.4223   10.3164 C.3     1  UNL1        0.1324
     11 C          59.8675   89.4293    6.9847 C.ar    1  UNL1        0.0358
     12 C          59.6557   87.9713    6.7027 C.ar    1  UNL1        0.0028
     13 C          59.7649   86.9690    7.8133 C.ar    1  UNL1       -0.0023
     14 C          60.0861   87.4246    9.2059 C.ar    1  UNL1        0.0004
     15 C          60.2980   88.8826    9.4878 C.ar    1  UNL1       -0.0023
     16 C          60.1887   89.8849    8.3773 C.ar    1  UNL1        0.0028
     17 C          59.5396   92.4363    3.6530 C.ar    1  UNL1        0.1769
     18 C          60.8766   91.8601    4.0143 C.ar    1  UNL1        0.1389
     19 N          60.9859   90.8578    5.1249 N.ar    1  UNL1       -0.2218
     20 C          59.7582   90.4316    5.8741 C.ar    1  UNL1        0.1625
     21 N          58.4213   91.0078    5.5128 N.ar    1  UNL1       -0.2218
     22 C          58.3120   92.0102    4.4022 C.ar    1  UNL1        0.1389
     23 C          59.6292   93.0066    1.1199 C.3     1  UNL1        0.2526
     24 O          59.4303   93.4386    2.5425 O.3     1  UNL1       -0.4683
     25 C          61.7374   83.8684   11.6390 C.3     1  UNL1        0.0495
     26 C          62.7761   82.9603   11.0503 C.3     1  UNL1        0.0376
     27 C          63.1098   84.0054   10.0274 C.3     1  UNL1        0.0059
     28 C          62.4423   81.9153   12.0733 C.3     1  UNL1        0.0059
     29 C          63.8148   82.0523   10.4616 C.2     1  UNL1        0.0500
     30 O          65.1829   82.5815   10.1484 O.co2   1  UNL1       -0.5492
     31 O          63.4854   80.6151   10.1861 O.co2   1  UNL1       -0.5492
     32 S          64.0944   85.0110   13.5855 S.3     1  UNL1       -0.1142
     33 C          64.0734   85.0895   15.0834 C.3     1  UNL1        0.0434
     34 C          65.4092   85.7717   15.0662 C.3     1  UNL1        0.0112
     35 C          62.7377   84.4074   15.1004 C.3     1  UNL1        0.0112
     36 C          64.0524   85.1681   16.5811 C.3     1  UNL1        0.0112
     37 O          64.4819   90.8919   13.8208 O.3     1  UNL1       -0.4737
     38 C          64.5120   92.2889   13.2753 C.3     1  UNL1        0.2257
     39 C          65.4487   92.6373   12.1567 C.3     1  UNL1        0.1277
     40 C          65.0740   93.3137   10.8713 C.3     1  UNL1        0.0516
     41 C          66.3183   93.4649   10.0473 C.ar    1  UNL1       -0.0067
     42 C          66.5577   94.0580    8.6905 C.ar    1  UNL1       -0.0030
     43 C          67.9407   94.0682    8.1099 C.ar    1  UNL1       -0.0002
     44 C          69.0843   93.4853    8.8859 C.ar    1  UNL1        0.0013
     45 C          68.8449   92.8921   10.2427 C.ar    1  UNL1        0.0146
     46 C          67.4619   92.8819   10.8234 C.ar    1  UNL1        0.0499
     47 N          66.9244   92.3704   12.1271 N.am    1  UNL1       -0.2566
     48 C          67.7226   91.7083   13.2108 C.2     1  UNL1        0.2299
     49 C          69.1993   91.5081   13.0391 C.3     1  UNL1        0.0952
     50 O          67.0442   91.2464   14.4663 O.2     1  UNL1       -0.2745
@<TRIPOS>UNITY_ATOM_ATTR
30 1
charge -1
@<TRIPOS>BOND
     1    23    24    1
     2    24    17    1
     3    17    18   ar
     4    18    19   ar
     5    19    20   ar
     6    20    11    1
     7    11    12   ar
     8    12    13   ar
     9    13    14   ar
    10    14    10    1
    11    10     1    1
    12     1     2   ar
    13     2    25    1
    14    25    26    1
    15    26    27    1
    16    26    28    1
    17    26    29    1
    18    29    30   ar
    19    29    31   ar
    20     2     3   ar
    21     3    32    1
    22    32    33    1
    23    33    34    1
    24    33    35    1
    25    33    36    1
    26     3     4   ar
    27     4     5   ar
    28     5     6   ar
    29     6    37    1
    30    37    38    1
    31    39    38    1
    32    39    40    1
    33    40    41    1
    34    41    42   ar
    35    42    43   ar
    36    43    44   ar
    37    44    45   ar
    38    45    46   ar
    39    46    47    1
    40    47    48   am
    41    48    49    1
    42    48    50    2
    43     6     7   ar
    44     7     8   ar
    45     8     9   ar
    46    14    15   ar
    47    15    16   ar
    48    20    21   ar
    49    21    22   ar
    50    22    17   ar
    51    16    11   ar
    52     9     1   ar
    53     9     4   ar
    54    47    39    1
    55    46    41   ar
@<TRIPOS>MOLECULE
*****
 50 55 0 0 0
SMALL
GASTEIGER

@<TRIPOS>ATOM
      1 N          60.0144   88.1229    8.3511 N.ar    1  UNL1       -0.3260
      2 C          60.5602   86.7261    8.3860 C.ar    1  UNL1        0.0433
      3 C          61.5672   86.6495    9.4951 C.ar    1  UNL1        0.0383
      4 C          61.6438   87.9990   10.1456 C.ar    1  UNL1        0.0256
      5 C          62.4634   88.5162   11.2905 C.ar    1  UNL1        0.0389
      6 C          62.3233   89.9440   11.7283 C.ar    1  UNL1        0.1387
      7 C          61.3637   90.8546   11.0212 C.ar    1  UNL1        0.0384
      8 C          60.5441   90.3373    9.8764 C.ar    1  UNL1        0.0203
      9 C          60.6841   88.9095    9.4386 C.ar    1  UNL1        0.0606
     10 C          58.9805   88.6419    7.3963 C.3     1  UNL1        0.1324
     11 C          60.1165   91.6924    4.2893 C.ar    1  UNL1        0.0358
     12 C          58.6930   91.5851    4.7497 C.ar    1  UNL1        0.0028
     13 C          58.3143   90.5683    5.7854 C.ar    1  UNL1       -0.0023
     14 C          59.3591   89.6587    6.3607 C.ar    1  UNL1        0.0004
     15 C          60.7828   89.7660    5.9002 C.ar    1  UNL1       -0.0023
     16 C          61.1615   90.7829    4.8646 C.ar    1  UNL1        0.0028
     17 C          61.2527   94.7429    1.1823 C.ar    1  UNL1        0.1769
     18 C          60.1562   95.0421    2.1612 C.ar    1  UNL1        0.1389
     19 N          59.7775   94.0253    3.1969 N.ar    1  UNL1       -0.2218
     20 C          60.4953   92.7093    3.2536 C.ar    1  UNL1        0.1625
     21 N          61.5918   92.4102    2.2747 N.ar    1  UNL1       -0.2218
     22 C          61.9705   93.4271    1.2390 C.ar    1  UNL1        0.1389
     23 C          61.1628   95.5988   -1.2691 C.3     1  UNL1        0.2526
     24 O          61.6314   95.7598    0.1467 O.3     1  UNL1       -0.4683
     25 C          60.1678   85.6031    7.4722 C.3     1  UNL1        0.0495
     26 C          61.1746   85.0198    6.5257 C.3     1  UNL1        0.0376
     27 C          62.2300   85.9232    7.0914 C.3     1  UNL1        0.0059
     28 C          60.1193   84.1163    5.9600 C.3     1  UNL1        0.0059
     29 C          62.1815   84.4364    5.5791 C.2     1  UNL1        0.0500
     30 O          61.7585   84.0058    4.2059 O.co2   1  UNL1       -0.5492
     31 O          63.6114   84.2837    6.0057 O.co2   1  UNL1       -0.5492
     32 S          62.3586   85.4365    9.8851 S.3     1  UNL1       -0.1142
     33 C          62.4200   85.0113   11.3224 C.3     1  UNL1        0.0434
     34 C          63.5484   84.0777   10.9980 C.3     1  UNL1        0.0112
     35 C          61.2917   85.9449   11.6467 C.3     1  UNL1        0.0112
     36 C          62.4814   84.5862   12.7595 C.3     1  UNL1        0.0112
     37 O          63.1429   90.4613   12.8732 O.3     1  UNL1       -0.4737
     38 C          63.8892   91.7553   12.7369 C.3     1  UNL1        0.2257
     39 C          65.2155   91.9313   13.4150 C.3     1  UNL1        0.1277
     40 C          65.4590   91.9084   14.8949 C.3     1  UNL1        0.0516
     41 C          66.9252   92.1239   15.1268 C.ar    1  UNL1       -0.0067
     42 C          67.7426   92.1983   16.3823 C.ar    1  UNL1       -0.0030
     43 C          69.2225   92.4287   16.3013 C.ar    1  UNL1       -0.0002
     44 C          69.8852   92.5848   14.9647 C.ar    1  UNL1        0.0013
     45 C          69.0678   92.5105   13.7091 C.ar    1  UNL1        0.0146
     46 C          67.5878   92.2801   13.7901 C.ar    1  UNL1        0.0499
     47 N          66.5312   92.1610   12.7322 N.am    1  UNL1       -0.2566
     48 C          66.7515   92.2551   11.2515 C.2     1  UNL1        0.2299
     49 C          68.1315   92.4888   10.7119 C.3     1  UNL1        0.0952
     50 O          65.5919   92.1154   10.3103 O.2     1  UNL1       -0.2745
@<TRIPOS>UNITY_ATOM_ATTR
30 1
charge -1
@<TRIPOS>BOND
     1    23    24    1
     2    24    17    1
     3    17    18   ar
     4    18    19   ar
     5    19    20   ar
     6    20    11    1
     7    11    12   ar
     8    12    13   ar
     9    13    14   ar
    10    14    10    1
    11    10     1    1
    12     1     2   ar
    13     2    25    1
    14    25    26    1
    15    26    27    1
    16    26    28    1
    17    26    29    1
    18    29    30   ar
    19    29    31   ar
    20     2     3   ar
    21     3    32    1
    22    32    33    1
    23    33    34    1
    24    33    35    1
    25    33    36    1
    26     3     4   ar
    27     4     5   ar
    28     5     6   ar
    29     6    37    1
    30    37    38    1
    31    39    38    1
    32    39    40    1
    33    40    41    1
    34    41    42   ar
    35    42    43   ar
    36    43    44   ar
    37    44    45   ar
    38    45    46   ar
    39    46    47    1
    40    47    48   am
    41    48    49    1
    42    48    50    2
    43     6     7   ar
    44     7     8   ar
    45     8     9   ar
    46    14    15   ar
    47    15    16   ar
    48    20    21   ar
    49    21    22   ar
    50    22    17   ar
    51    16    11   ar
    52     9     1   ar
    53     9     4   ar
    54    47    39    1
    55    46    41   ar
@<TRIPOS>MOLECULE
*****
 50 55 0 0 0
SMALL
GASTEIGER

@<TRIPOS>ATOM
      1 N          60.0919   88.1410    8.5558 N.ar    1  UNL1       -0.3260
      2 C          60.6348   86.7428    8.5656 C.ar    1  UNL1        0.0433
      3 C          61.6926   86.6637    9.6261 C.ar    1  UNL1        0.0383
      4 C          61.8035   88.0130   10.2718 C.ar    1  UNL1        0.0256
      5 C          62.6775   88.5282   11.3766 C.ar    1  UNL1        0.0389
      6 C          62.5622   89.9566   11.8200 C.ar    1  UNL1        0.1387
      7 C          61.5729   90.8697   11.1585 C.ar    1  UNL1        0.0384
      8 C          60.6989   90.3544   10.0537 C.ar    1  UNL1        0.0203
      9 C          60.8142   88.9261    9.6103 C.ar    1  UNL1        0.0606
     10 C          59.0157   88.6627    7.6505 C.3     1  UNL1        0.1324
     11 C          60.0547   91.5221    4.3348 C.ar    1  UNL1        0.0358
     12 C          58.6366   91.4082    4.8101 C.ar    1  UNL1        0.0028
     13 C          58.2902   90.4551    5.9153 C.ar    1  UNL1       -0.0023
     14 C          59.3620   89.6158    6.5453 C.ar    1  UNL1        0.0004
     15 C          60.7802   89.7297    6.0700 C.ar    1  UNL1       -0.0023
     16 C          61.1266   90.6828    4.9648 C.ar    1  UNL1        0.0028
     17 C          61.0939   94.3814    1.0190 C.ar    1  UNL1        0.1769
     18 C          59.6638   94.2036    1.4353 C.ar    1  UNL1        0.1389
     19 N          59.3174   93.2505    2.5405 N.ar    1  UNL1       -0.2218
     20 C          60.4011   92.4752    3.2295 C.ar    1  UNL1        0.1625
     21 N          61.8312   92.6531    2.8133 N.ar    1  UNL1       -0.2218
     22 C          62.1776   93.6062    1.7080 C.ar    1  UNL1        0.1389
     23 C          61.4346   94.8650   -1.5108 C.3     1  UNL1        0.2526
     24 O          61.4403   95.3345   -0.0862 O.3     1  UNL1       -0.4683
     25 C          60.1967   85.6206    7.6718 C.3     1  UNL1        0.0495
     26 C          61.1404   85.0671    6.6456 C.3     1  UNL1        0.0376
     27 C          59.9822   84.4699    5.9027 C.3     1  UNL1        0.0059
     28 C          62.2985   85.6643    7.3885 C.3     1  UNL1        0.0059
     29 C          62.0840   84.5135    5.6193 C.2     1  UNL1        0.0500
     30 O          63.5628   84.5390    5.8692 O.co2   1  UNL1       -0.5492
     31 O          61.5488   83.9346    4.3433 O.co2   1  UNL1       -0.5492
     32 S          62.4981   85.4485    9.9791 S.3     1  UNL1       -0.1142
     33 C          62.4890   84.9249   11.3848 C.3     1  UNL1        0.0434
     34 C          61.3820   85.8758   11.7318 C.3     1  UNL1        0.0112
     35 C          63.5961   83.9742   11.0377 C.3     1  UNL1        0.0112
     36 C          62.4801   84.4014   12.7904 C.3     1  UNL1        0.0112
     37 O          63.4362   90.4719   12.9248 O.3     1  UNL1       -0.4737
     38 C          64.8634   90.8378   12.6434 C.3     1  UNL1        0.2257
     39 C          65.2015   92.2131   12.1491 C.3     1  UNL1        0.1277
     40 C          64.8241   92.7884   10.8162 C.3     1  UNL1        0.0516
     41 C          65.3658   94.1854   10.7442 C.ar    1  UNL1       -0.0067
     42 C          65.3025   95.2324    9.6719 C.ar    1  UNL1       -0.0030
     43 C          65.9515   96.5674    9.8880 C.ar    1  UNL1       -0.0002
     44 C          66.6636   96.8554   11.1764 C.ar    1  UNL1        0.0013
     45 C          66.7268   95.8083   12.2487 C.ar    1  UNL1        0.0146
     46 C          66.0779   94.4733   12.0326 C.ar    1  UNL1        0.0499
     47 N          65.9764   93.2544   12.9008 N.am    1  UNL1       -0.2566
     48 C          66.5492   93.1033   14.2789 C.2     1  UNL1        0.2299
     49 C          67.3047   94.2375   14.9056 C.3     1  UNL1        0.0952
     50 O          66.3665   91.8180   15.0303 O.2     1  UNL1       -0.2745
@<TRIPOS>UNITY_ATOM_ATTR
30 1
charge -1
@<TRIPOS>BOND
     1    23    24    1
     2    24    17    1
     3    17    18   ar
     4    18    19   ar
     5    19    20   ar
     6    20    11    1
     7    11    12   ar
     8    12    13   ar
     9    13    14   ar
    10    14    10    1
    11    10     1    1
    12     1     2   ar
    13     2    25    1
    14    25    26    1
    15    26    27    1
    16    26    28    1
    17    26    29    1
    18    29    30   ar
    19    29    31   ar
    20     2     3   ar
    21     3    32    1
    22    32    33    1
    23    33    34    1
    24    33    35    1
    25    33    36    1
    26     3     4   ar
    27     4     5   ar
    28     5     6   ar
    29     6    37    1
    30    37    38    1
    31    39    38    1
    32    39    40    1
    33    40    41    1
    34    41    42   ar
    35    42    43   ar
    36    43    44   ar
    37    44    45   ar
    38    45    46   ar
    39    46    47    1
    40    47    48   am
    41    48    49    1
    42    48    50    2
    43     6     7   ar
    44     7     8   ar
    45     8     9   ar
    46    14    15   ar
    47    15    16   ar
    48    20    21   ar
    49    21    22   ar
    50    22    17   ar
    51    16    11   ar
    52     9     1   ar
    53     9     4   ar
    54    47    39    1
    55    46    41   ar
@<TRIPOS>MOLECULE
*****
 50 55 0 0 0
SMALL
GASTEIGER

@<TRIPOS>ATOM
      1 N          61.7776   85.8608   11.1857 N.ar    1  UNL1       -0.3260
      2 C          62.6938   84.7596   11.6306 C.ar    1  UNL1        0.0433
      3 C          63.6629   85.3345   12.6206 C.ar    1  UNL1        0.0383
      4 C          63.3457   86.7910   12.7877 C.ar    1  UNL1        0.0256
      5 C          63.9673   87.8631   13.6328 C.ar    1  UNL1        0.0389
      6 C          63.4238   89.2605   13.5910 C.ar    1  UNL1        0.1387
      7 C          62.2586   89.5858   12.7041 C.ar    1  UNL1        0.0384
      8 C          61.6370   88.5137   11.8591 C.ar    1  UNL1        0.0203
      9 C          62.1805   87.1163   11.9008 C.ar    1  UNL1        0.0606
     10 C          60.6555   85.7296   10.1989 C.3     1  UNL1        0.1324
     11 C          59.9711   88.9476    7.1287 C.ar    1  UNL1        0.0358
     12 C          60.6663   89.2755    8.4168 C.ar    1  UNL1        0.0028
     13 C          60.8945   88.2029    9.4402 C.ar    1  UNL1       -0.0023
     14 C          60.4274   86.8022    9.1756 C.ar    1  UNL1        0.0004
     15 C          59.7322   86.4743    7.8875 C.ar    1  UNL1       -0.0023
     16 C          59.5040   87.5469    6.8640 C.ar    1  UNL1        0.0028
     17 C          59.2866   92.1654    4.0584 C.ar    1  UNL1        0.1769
     18 C          60.6765   91.6701    4.3286 C.ar    1  UNL1        0.1389
     19 N          60.9047   90.5975    5.3520 N.ar    1  UNL1       -0.2218
     20 C          59.7429   90.0202    6.1053 C.ar    1  UNL1        0.1625
     21 N          58.3531   90.5155    5.8350 N.ar    1  UNL1       -0.2218
     22 C          58.1250   91.5881    4.8116 C.ar    1  UNL1        0.1389
     23 C          60.1266   93.5563    2.0311 C.3     1  UNL1        0.2526
     24 O          59.0585   93.2380    3.0350 O.3     1  UNL1       -0.4683
     25 C          62.6488   83.3338   11.1668 C.3     1  UNL1        0.0495
     26 C          62.3091   82.2403   12.1357 C.3     1  UNL1        0.0376
     27 C          61.6318   83.2396   13.0260 C.3     1  UNL1        0.0059
     28 C          62.9863   81.2410   11.2454 C.3     1  UNL1        0.0059
     29 C          61.9694   81.1468   13.1047 C.2     1  UNL1        0.0500
     30 O          62.5506   79.7760   12.9226 O.co2   1  UNL1       -0.5492
     31 O          61.0485   81.4241   14.2558 O.co2   1  UNL1       -0.5492
     32 S          64.7572   84.5845   13.3208 S.3     1  UNL1       -0.1142
     33 C          64.4497   83.7861   14.5529 C.3     1  UNL1        0.0434
     34 C          63.9114   85.0185   15.2172 C.3     1  UNL1        0.0112
     35 C          64.9881   82.5537   13.8885 C.3     1  UNL1        0.0112
     36 C          64.1423   82.9876   15.7849 C.3     1  UNL1        0.0112
     37 O          64.0454   90.3327   14.4361 O.3     1  UNL1       -0.4737
     38 C          65.4264   90.8277   14.1234 C.3     1  UNL1        0.2257
     39 C          65.6108   92.0407   13.2606 C.3     1  UNL1        0.1277
     40 C          65.0574   92.2330   11.8798 C.3     1  UNL1        0.0516
     41 C          65.4856   93.5856   11.3929 C.ar    1  UNL1       -0.0067
     42 C          65.2364   94.3143   10.1058 C.ar    1  UNL1       -0.0030
     43 C          65.8052   95.6868    9.8986 C.ar    1  UNL1       -0.0002
     44 C          66.6233   96.3305   10.9785 C.ar    1  UNL1        0.0013
     45 C          66.8726   95.6017   12.2658 C.ar    1  UNL1        0.0146
     46 C          66.3038   94.2293   12.4730 C.ar    1  UNL1        0.0499
     47 N          66.3811   93.2745   13.6272 N.am    1  UNL1       -0.2566
     48 C          67.1022   93.5119   14.9209 C.2     1  UNL1        0.2299
     49 C          67.8336   94.8020   15.1463 C.3     1  UNL1        0.0952
     50 O          67.0919   92.4592   15.9894 O.2     1  UNL1       -0.2745
@<TRIPOS>UNITY_ATOM_ATTR
30 1
charge -1
@<TRIPOS>BOND
     1    23    24    1
     2    24    17    1
     3    17    18   ar
     4    18    19   ar
     5    19    20   ar
     6    20    11    1
     7    11    12   ar
     8    12    13   ar
     9    13    14   ar
    10    14    10    1
    11    10     1    1
    12     1     2   ar
    13     2    25    1
    14    25    26    1
    15    26    27    1
    16    26    28    1
    17    26    29    1
    18    29    30   ar
    19    29    31   ar
    20     2     3   ar
    21     3    32    1
    22    32    33    1
    23    33    34    1
    24    33    35    1
    25    33    36    1
    26     3     4   ar
    27     4     5   ar
    28     5     6   ar
    29     6    37    1
    30    37    38    1
    31    39    38    1
    32    39    40    1
    33    40    41    1
    34    41    42   ar
    35    42    43   ar
    36    43    44   ar
    37    44    45   ar
    38    45    46   ar
    39    46    47    1
    40    47    48   am
    41    48    49    1
    42    48    50    2
    43     6     7   ar
    44     7     8   ar
    45     8     9   ar
    46    14    15   ar
    47    15    16   ar
    48    20    21   ar
    49    21    22   ar
    50    22    17   ar
    51    16    11   ar
    52     9     1   ar
    53     9     4   ar
    54    47    39    1
    55    46    41   ar
@<TRIPOS>MOLECULE
*****
 50 55 0 0 0
SMALL
GASTEIGER

@<TRIPOS>ATOM
      1 N          60.8917   87.2274   10.3972 N.ar    1  UNL1       -0.3260
      2 C          61.0427   85.8667    9.7843 C.ar    1  UNL1        0.0433
      3 C          60.8314   85.9987    8.3051 C.ar    1  UNL1        0.0383
      4 C          60.5498   87.4409    8.0039 C.ar    1  UNL1        0.0256
      5 C          60.2642   88.1608    6.7193 C.ar    1  UNL1        0.0389
      6 C          60.0159   89.6400    6.7277 C.ar    1  UNL1        0.1387
      7 C          60.0532   90.3994    8.0207 C.ar    1  UNL1        0.0384
      8 C          60.3388   89.6796    9.3053 C.ar    1  UNL1        0.0203
      9 C          60.5870   88.2003    9.2969 C.ar    1  UNL1        0.0606
     10 C          61.0224   87.5574   11.8546 C.3     1  UNL1        0.1324
     11 C          64.1943   90.4356   13.2346 C.ar    1  UNL1        0.0358
     12 C          63.0897   90.9103   12.3377 C.ar    1  UNL1        0.0028
     13 C          62.0324   89.9509   11.8777 C.ar    1  UNL1       -0.0023
     14 C          62.0796   88.5168   12.3146 C.ar    1  UNL1        0.0004
     15 C          63.1843   88.0420   13.2116 C.ar    1  UNL1       -0.0023
     16 C          64.2416   89.0014   13.6716 C.ar    1  UNL1        0.0028
     17 C          67.3662   93.3138   14.6147 C.ar    1  UNL1        0.1769
     18 C          66.4566   93.6870   13.4818 C.ar    1  UNL1        0.1389
     19 N          65.3993   92.7276   13.0218 N.ar    1  UNL1       -0.2218
     20 C          65.2516   91.3950   13.6947 C.ar    1  UNL1        0.1625
     21 N          66.1612   91.0220   14.8275 N.ar    1  UNL1       -0.2218
     22 C          67.2186   91.9814   15.2875 C.ar    1  UNL1        0.1389
     23 C          69.4006   93.8605   16.1353 C.3     1  UNL1        0.2526
     24 O          68.4235   94.2732   15.0747 O.3     1  UNL1       -0.4683
     25 C          61.3509   84.5971   10.5211 C.3     1  UNL1        0.0495
     26 C          62.6817   84.4227   11.1907 C.3     1  UNL1        0.0376
     27 C          62.0510   84.7138   12.5201 C.3     1  UNL1        0.0059
     28 C          63.3125   84.1316    9.8613 C.3     1  UNL1        0.0059
     29 C          64.0126   84.2483   11.8604 C.2     1  UNL1        0.0500
     30 O          64.2747   84.8954   13.1880 O.co2   1  UNL1       -0.5492
     31 O          65.0814   83.4268   11.2025 O.co2   1  UNL1       -0.5492
     32 S          60.8912   84.8841    7.3030 S.3     1  UNL1       -0.1142
     33 C          62.0950   84.7323    6.4210 C.3     1  UNL1        0.0434
     34 C          61.2377   84.1125    5.3576 C.3     1  UNL1        0.0112
     35 C          62.9522   85.3521    7.4844 C.3     1  UNL1        0.0112
     36 C          63.2988   84.5805    5.5391 C.3     1  UNL1        0.0112
     37 O          59.7303   90.3599    5.4431 O.3     1  UNL1       -0.4737
     38 C          60.7721   91.2521    4.8357 C.3     1  UNL1        0.2257
     39 C          60.5140   91.9157    3.5155 C.3     1  UNL1        0.1277
     40 C          59.1748   92.3374    2.9875 C.3     1  UNL1        0.0516
     41 C          59.3829   92.9565    1.6372 C.ar    1  UNL1       -0.0067
     42 C          58.4255   93.5507    0.6472 C.ar    1  UNL1       -0.0030
     43 C          58.9359   94.1060   -0.6495 C.ar    1  UNL1       -0.0002
     44 C          60.4037   94.0669   -0.9560 C.ar    1  UNL1        0.0013
     45 C          61.3612   93.4727    0.0340 C.ar    1  UNL1        0.0146
     46 C          60.8508   92.9174    1.3307 C.ar    1  UNL1        0.0499
     47 N          61.5498   92.2742    2.4915 N.am    1  UNL1       -0.2566
     48 C          63.0255   92.0320    2.6079 C.2     1  UNL1        0.2299
     49 C          63.9437   92.4471    1.4967 C.3     1  UNL1        0.0952
     50 O          63.5831   91.3748    3.8355 O.2     1  UNL1       -0.2745
@<TRIPOS>UNITY_ATOM_ATTR
30 1
charge -1
@<TRIPOS>BOND
     1    23    24    1
     2    24    17    1
     3    17    18   ar
     4    18    19   ar
     5    19    20   ar
     6    20    11    1
     7    11    12   ar
     8    12    13   ar
     9    13    14   ar
    10    14    10    1
    11    10     1    1
    12     1     2   ar
    13     2    25    1
    14    25    26    1
    15    26    27    1
    16    26    28    1
    17    26    29    1
    18    29    30   ar
    19    29    31   ar
    20     2     3   ar
    21     3    32    1
    22    32    33    1
    23    33    34    1
    24    33    35    1
    25    33    36    1
    26     3     4   ar
    27     4     5   ar
    28     5     6   ar
    29     6    37    1
    30    37    38    1
    31    39    38    1
    32    39    40    1
    33    40    41    1
    34    41    42   ar
    35    42    43   ar
    36    43    44   ar
    37    44    45   ar
    38    45    46   ar
    39    46    47    1
    40    47    48   am
    41    48    49    1
    42    48    50    2
    43     6     7   ar
    44     7     8   ar
    45     8     9   ar
    46    14    15   ar
    47    15    16   ar
    48    20    21   ar
    49    21    22   ar
    50    22    17   ar
    51    16    11   ar
    52     9     1   ar
    53     9     4   ar
    54    47    39    1
    55    46    41   ar
@<TRIPOS>MOLECULE
*****
 50 55 0 0 0
SMALL
GASTEIGER

@<TRIPOS>ATOM
      1 N          60.7882   88.1148   11.0487 N.ar    1  UNL1       -0.3260
      2 C          61.0614   86.6577   10.8205 C.ar    1  UNL1        0.0433
      3 C          60.9567   86.3916    9.3480 C.ar    1  UNL1        0.0383
      4 C          60.6189   87.6842    8.6661 C.ar    1  UNL1        0.0256
      5 C          60.3927   88.0291    7.2240 C.ar    1  UNL1        0.0389
      6 C          60.0623   89.4390    6.8329 C.ar    1  UNL1        0.1387
      7 C          59.9582   90.5041    7.8840 C.ar    1  UNL1        0.0384
      8 C          60.1844   90.1592    9.3262 C.ar    1  UNL1        0.0203
      9 C          60.5148   88.7493    9.7172 C.ar    1  UNL1        0.0606
     10 C          60.7885   88.8147   12.3754 C.3     1  UNL1        0.1324
     11 C          64.5138   90.8773   13.8307 C.ar    1  UNL1        0.0358
     12 C          63.7301   89.9998   14.7612 C.ar    1  UNL1        0.0028
     13 C          62.4884   89.3123   14.2761 C.ar    1  UNL1       -0.0023
     14 C          62.0302   89.5022   12.8605 C.ar    1  UNL1        0.0004
     15 C          62.8139   90.3797   11.9299 C.ar    1  UNL1       -0.0023
     16 C          64.0557   91.0672   12.4150 C.ar    1  UNL1        0.0028
     17 C          68.2391   92.9399   15.2858 C.ar    1  UNL1        0.1769
     18 C          68.2175   92.2996   13.9295 C.ar    1  UNL1        0.1389
     19 N          66.9758   91.6121   13.4444 N.ar    1  UNL1       -0.2218
     20 C          65.7556   91.5648   14.3157 C.ar    1  UNL1        0.1625
     21 N          65.7773   92.2051   15.6720 N.ar    1  UNL1       -0.2218
     22 C          67.0190   92.8926   16.1571 C.ar    1  UNL1        0.1389
     23 C          69.4185   95.0553   16.2261 C.3     1  UNL1        0.2526
     24 O          69.4809   93.6274   15.7709 O.3     1  UNL1       -0.4683
     25 C          61.3827   85.6446   11.8789 C.3     1  UNL1        0.0495
     26 C          62.7249   84.9751   11.8935 C.3     1  UNL1        0.0376
     27 C          62.0793   83.6725   11.5242 C.3     1  UNL1        0.0059
     28 C          63.3706   86.2777   12.2627 C.3     1  UNL1        0.0059
     29 C          64.0672   84.3056   11.9080 C.2     1  UNL1        0.0500
     30 O          64.8494   84.2211   13.1852 O.co2   1  UNL1       -0.5492
     31 O          64.6272   83.7205   10.6455 O.co2   1  UNL1       -0.5492
     32 S          61.1551   85.0656    8.6754 S.3     1  UNL1       -0.1142
     33 C          62.0100   84.9683    7.4466 C.3     1  UNL1        0.0434
     34 C          63.2101   85.3748    8.2494 C.3     1  UNL1        0.0112
     35 C          60.8098   84.5618    6.6439 C.3     1  UNL1        0.0112
     36 C          62.8647   84.8710    6.2179 C.3     1  UNL1        0.0112
     37 O          59.8361   89.7839    5.3907 O.3     1  UNL1       -0.4737
     38 C          59.8684   91.2168    4.9483 C.3     1  UNL1        0.2257
     39 C          60.8740   91.6646    3.9294 C.3     1  UNL1        0.1277
     40 C          62.3572   91.4528    4.0021 C.3     1  UNL1        0.0516
     41 C          62.9729   92.0601    2.7765 C.ar    1  UNL1       -0.0067
     42 C          64.3950   92.1543    2.3091 C.ar    1  UNL1       -0.0030
     43 C          64.7146   92.8358    1.0116 C.ar    1  UNL1       -0.0002
     44 C          63.6119   93.4230    0.1815 C.ar    1  UNL1        0.0013
     45 C          62.1896   93.3288    0.6488 C.ar    1  UNL1        0.0146
     46 C          61.8701   92.6474    1.9463 C.ar    1  UNL1        0.0499
     47 N          60.5730   92.4029    2.6588 N.am    1  UNL1       -0.2566
     48 C          59.2135   92.8231    2.1842 C.2     1  UNL1        0.2299
     49 C          59.0669   93.5591    0.8854 C.3     1  UNL1        0.0952
     50 O          58.0006   92.5071    3.0082 O.2     1  UNL1       -0.2745
@<TRIPOS>UNITY_ATOM_ATTR
30 1
charge -1
@<TRIPOS>BOND
     1    23    24    1
     2    24    17    1
     3    17    18   ar
     4    18    19   ar
     5    19    20   ar
     6    20    11    1
     7    11    12   ar
     8    12    13   ar
     9    13    14   ar
    10    14    10    1
    11    10     1    1
    12     1     2   ar
    13     2    25    1
    14    25    26    1
    15    26    27    1
    16    26    28    1
    17    26    29    1
    18    29    30   ar
    19    29    31   ar
    20     2     3   ar
    21     3    32    1
    22    32    33    1
    23    33    34    1
    24    33    35    1
    25    33    36    1
    26     3     4   ar
    27     4     5   ar
    28     5     6   ar
    29     6    37    1
    30    37    38    1
    31    39    38    1
    32    39    40    1
    33    40    41    1
    34    41    42   ar
    35    42    43   ar
    36    43    44   ar
    37    44    45   ar
    38    45    46   ar
    39    46    47    1
    40    47    48   am
    41    48    49    1
    42    48    50    2
    43     6     7   ar
    44     7     8   ar
    45     8     9   ar
    46    14    15   ar
    47    15    16   ar
    48    20    21   ar
    49    21    22   ar
    50    22    17   ar
    51    16    11   ar
    52     9     1   ar
    53     9     4   ar
    54    47    39    1
    55    46    41   ar
@<TRIPOS>MOLECULE
*****
 50 55 0 0 0
SMALL
GASTEIGER

@<TRIPOS>ATOM
      1 N          62.3429   85.5688   11.1508 N.ar    1  UNL1       -0.3260
      2 C          63.0455   84.5822   10.2660 C.ar    1  UNL1        0.0433
      3 C          62.5278   84.7611    8.8697 C.ar    1  UNL1        0.0383
      4 C          61.5052   85.8583    8.8914 C.ar    1  UNL1        0.0256
      5 C          60.6633   86.4673    7.8097 C.ar    1  UNL1        0.0389
      6 C          59.7072   87.5756    8.1378 C.ar    1  UNL1        0.1387
      7 C          59.5930   88.0748    9.5476 C.ar    1  UNL1        0.0384
      8 C          60.4349   87.4658   10.6294 C.ar    1  UNL1        0.0203
      9 C          61.3909   86.3575   10.3013 C.ar    1  UNL1        0.0606
     10 C          62.5551   85.7373   12.6262 C.3     1  UNL1        0.1324
     11 C          64.7416   89.3471   14.1876 C.ar    1  UNL1        0.0358
     12 C          63.9134   89.4528   12.9415 C.ar    1  UNL1        0.0028
     13 C          63.1845   88.2495   12.4210 C.ar    1  UNL1       -0.0023
     14 C          63.2839   86.9405   13.1466 C.ar    1  UNL1        0.0004
     15 C          64.1122   86.8348   14.3928 C.ar    1  UNL1       -0.0023
     16 C          64.8411   88.0380   14.9133 C.ar    1  UNL1        0.0028
     17 C          66.9282   92.9568   15.7491 C.ar    1  UNL1        0.1769
     18 C          65.5378   92.6578   16.2261 C.ar    1  UNL1        0.1389
     19 N          64.8089   91.4546   15.7055 N.ar    1  UNL1       -0.2218
     20 C          65.4705   90.5503   14.7081 C.ar    1  UNL1        0.1625
     21 N          66.8609   90.8493   14.2313 N.ar    1  UNL1       -0.2218
     22 C          67.5898   92.0526   14.7518 C.ar    1  UNL1        0.1389
     23 C          69.1427   94.2709   16.0946 C.3     1  UNL1        0.2526
     24 O          67.6571   94.1600   16.2697 O.3     1  UNL1       -0.4683
     25 C          64.0836   83.5907   10.7012 C.3     1  UNL1        0.0495
     26 C          63.7750   82.6138   11.7968 C.3     1  UNL1        0.0376
     27 C          64.6680   83.3775   12.7292 C.3     1  UNL1        0.0059
     28 C          62.8821   81.8502   10.8644 C.3     1  UNL1        0.0059
     29 C          63.4665   81.6369   12.8925 C.2     1  UNL1        0.0500
     30 O          62.8385   80.3149   12.5637 O.co2   1  UNL1       -0.5492
     31 O          63.7858   81.9819   14.3169 O.co2   1  UNL1       -0.5492
     32 S          62.9572   83.9800    7.6632 S.3     1  UNL1       -0.1142
     33 C          62.3729   84.2959    6.3182 C.3     1  UNL1        0.0434
     34 C          61.0957   83.6158    6.7132 C.3     1  UNL1        0.0112
     35 C          63.6502   84.9760    5.9233 C.3     1  UNL1        0.0112
     36 C          61.7888   84.6118    4.9732 C.3     1  UNL1        0.0112
     37 O          58.8653   88.1846    7.0559 O.3     1  UNL1       -0.4737
     38 C          58.6982   89.6736    6.9843 C.3     1  UNL1        0.2257
     39 C          59.3203   90.4448    5.8582 C.3     1  UNL1        0.1277
     40 C          60.7846   90.5146    5.5405 C.3     1  UNL1        0.0516
     41 C          60.9566   91.3946    4.3381 C.ar    1  UNL1       -0.0067
     42 C          62.1743   91.8255    3.5756 C.ar    1  UNL1       -0.0030
     43 C          62.0341   92.7304    2.3875 C.ar    1  UNL1       -0.0002
     44 C          60.6761   93.2045    1.9620 C.ar    1  UNL1        0.0013
     45 C          59.4583   92.7737    2.7246 C.ar    1  UNL1        0.0146
     46 C          59.5986   91.8687    3.9126 C.ar    1  UNL1        0.0499
     47 N          58.5873   91.2817    4.8521 N.am    1  UNL1       -0.2566
     48 C          57.1035   91.4942    4.7954 C.2     1  UNL1        0.2299
     49 C          56.5105   92.3626    3.7257 C.3     1  UNL1        0.0952
     50 O          56.2127   90.8384    5.8084 O.2     1  UNL1       -0.2745
@<TRIPOS>UNITY_ATOM_ATTR
30 1
charge -1
@<TRIPOS>BOND
     1    23    24    1
     2    24    17    1
     3    17    18   ar
     4    18    19   ar
     5    19    20   ar
     6    20    11    1
     7    11    12   ar
     8    12    13   ar
     9    13    14   ar
    10    14    10    1
    11    10     1    1
    12     1     2   ar
    13     2    25    1
    14    25    26    1
    15    26    27    1
    16    26    28    1
    17    26    29    1
    18    29    30   ar
    19    29    31   ar
    20     2     3   ar
    21     3    32    1
    22    32    33    1
    23    33    34    1
    24    33    35    1
    25    33    36    1
    26     3     4   ar
    27     4     5   ar
    28     5     6   ar
    29     6    37    1
    30    37    38    1
    31    39    38    1
    32    39    40    1
    33    40    41    1
    34    41    42   ar
    35    42    43   ar
    36    43    44   ar
    37    44    45   ar
    38    45    46   ar
    39    46    47    1
    40    47    48   am
    41    48    49    1
    42    48    50    2
    43     6     7   ar
    44     7     8   ar
    45     8     9   ar
    46    14    15   ar
    47    15    16   ar
    48    20    21   ar
    49    21    22   ar
    50    22    17   ar
    51    16    11   ar
    52     9     1   ar
    53     9     4   ar
    54    47    39    1
    55    46    41   ar
