@<TRIPOS>MOLECULE
*****
 33 37 0 0 0
SMALL
GASTEIGER

@<TRIPOS>ATOM
      1 C          62.7591   86.7101   11.8563 C.2     1  UNL1        0.2506
      2 O          63.4706   87.4312   12.9625 O.2     1  UNL1       -0.2699
      3 N          61.6960   87.4127   11.0650 N.am    1  UNL1       -0.2723
      4 C          60.9844   86.6916    9.9588 C.3     1  UNL1        0.1257
      5 C          59.9213   87.3943    9.1676 C.3     1  UNL1        0.1637
      6 O          59.5698   88.8181    9.4826 O.3     1  UNL1       -0.3502
      7 C          60.2813   89.5392   10.5888 C.3     1  UNL1        0.1622
      8 C          61.3444   88.8366   11.3800 C.3     1  UNL1        0.1096
      9 C          63.9114   81.9009   13.4513 C.3     1  UNL1        0.0327
     10 C          63.6868   82.8817   12.3388 C.ar    1  UNL1       -0.0023
     11 C          63.8137   82.4387   10.9113 C.ar    1  UNL1       -0.0027
     12 C          63.5891   83.4194    9.7989 C.ar    1  UNL1       -0.0001
     13 C          63.2376   84.8432   10.1138 C.ar    1  UNL1        0.0061
     14 C          63.1106   85.2862   11.5413 C.ar    1  UNL1        0.0726
     15 C          63.3352   84.3055   12.6538 C.ar    1  UNL1        0.1032
     16 N          63.2083   84.7485   14.0812 N.ar    1  UNL1       -0.1480
     17 N          64.3021   85.3363   14.9226 N.ar    1  UNL1       -0.1447
     18 C          63.7351   85.6326   16.2793 C.ar    1  UNL1        0.1446
     19 C          62.2908   85.2278   16.2765 C.ar    1  UNL1        0.1446
     20 N          61.9652   84.6814   14.9180 N.ar    1  UNL1       -0.1447
     21 C          62.0560   89.5577   12.4862 C.3     1  UNL1        0.0496
     22 C          63.1761   90.5028   12.1666 C.ar    1  UNL1       -0.0083
     23 C          64.1496   90.9009   13.2360 C.ar    1  UNL1        0.0175
     24 C          65.2698   91.8460   12.9165 C.ar    1  UNL1        0.1026
     25 C          65.4163   92.3930   11.5275 C.ar    1  UNL1        0.0218
     26 C          64.4427   91.9948   10.4580 C.ar    1  UNL1        0.0127
     27 C          63.3226   91.0497   10.7776 C.ar    1  UNL1        0.0538
     28 CL         62.3491   90.6516    9.7082 Cl      1  UNL1       -0.0826
     29 N          66.2433   92.2441   13.9859 N.ar    1  UNL1       -0.1478
     30 N          67.7328   92.3330   13.8334 N.ar    1  UNL1       -0.1447
     31 C          68.3084   92.7670   15.1488 C.ar    1  UNL1        0.1446
     32 C          67.1745   92.9464   16.1143 C.ar    1  UNL1        0.1446
     33 N          65.8982   92.6233   15.3956 N.ar    1  UNL1       -0.1447
@<TRIPOS>BOND
     1     9    10    1
     2    10    11   ar
     3    11    12   ar
     4    12    13   ar
     5    13    14   ar
     6    14     1    1
     7     1     2    2
     8     1     3   am
     9     3     4    1
    10     4     5    1
    11     5     6    1
    12     6     7    1
    13     7     8    1
    14     8    21    1
    15    21    22    1
    16    22    23   ar
    17    23    24   ar
    18    24    29    1
    19    29    30   ar
    20    30    31   ar
    21    31    32   ar
    22    32    33   ar
    23    24    25   ar
    24    25    26   ar
    25    26    27   ar
    26    27    28    1
    27    14    15   ar
    28    15    16    1
    29    16    17   ar
    30    17    18   ar
    31    18    19   ar
    32    19    20   ar
    33    15    10   ar
    34    20    16   ar
    35     8     3    1
    36    27    22   ar
    37    33    29   ar
@<TRIPOS>MOLECULE
*****
 33 37 0 0 0
SMALL
GASTEIGER

@<TRIPOS>ATOM
      1 C          62.7572   87.1596   11.8741 C.2     1  UNL1        0.2506
      2 O          63.2989   87.4364   13.2452 O.2     1  UNL1       -0.2699
      3 N          61.9776   88.2158   11.1484 N.am    1  UNL1       -0.2723
      4 C          61.4358   87.9390    9.7773 C.3     1  UNL1        0.1257
      5 C          60.6562   88.9952    9.0516 C.3     1  UNL1        0.1637
      6 O          60.4184   90.3282    9.6970 O.3     1  UNL1       -0.3502
      7 C          60.9601   90.6050   11.0680 C.3     1  UNL1        0.1622
      8 C          61.7397   89.5489   11.7938 C.3     1  UNL1        0.1096
      9 C          63.7325   82.0722   12.2826 C.3     1  UNL1        0.0327
     10 C          63.4827   83.2829   11.4330 C.ar    1  UNL1       -0.0023
     11 C          63.4707   83.1606    9.9381 C.ar    1  UNL1       -0.0027
     12 C          63.2209   84.3712    9.0885 C.ar    1  UNL1       -0.0001
     13 C          62.9830   85.7042    9.7338 C.ar    1  UNL1        0.0061
     14 C          62.9950   85.8265   11.2288 C.ar    1  UNL1        0.0726
     15 C          63.2448   84.6159   12.0784 C.ar    1  UNL1        0.1032
     16 N          63.2568   84.7382   13.5733 N.ar    1  UNL1       -0.1480
     17 N          64.4597   85.0146   14.4258 N.ar    1  UNL1       -0.1447
     18 C          64.0144   85.0528   15.8576 C.ar    1  UNL1        0.1446
     19 C          62.5362   84.8001   15.8901 C.ar    1  UNL1        0.1446
     20 N          62.0680   84.6057   14.4784 N.ar    1  UNL1       -0.1447
     21 C          62.2815   89.8257   13.1649 C.3     1  UNL1        0.0496
     22 C          63.5881   90.5448   13.3239 C.ar    1  UNL1       -0.0083
     23 C          64.1528   91.3357   12.1813 C.ar    1  UNL1        0.0175
     24 C          65.4596   92.0549   12.3403 C.ar    1  UNL1        0.1026
     25 C          66.2016   91.9832   13.6419 C.ar    1  UNL1        0.0218
     26 C          65.6369   91.1922   14.7845 C.ar    1  UNL1        0.0127
     27 C          64.3302   90.4731   14.6255 C.ar    1  UNL1        0.0538
     28 CL         63.7655   89.6822   15.7681 Cl      1  UNL1       -0.0826
     29 N          66.0242   92.8458   11.1976 N.ar    1  UNL1       -0.1478
     30 N          65.5565   94.1970   10.7444 N.ar    1  UNL1       -0.1447
     31 C          66.3989   94.6107    9.5743 C.ar    1  UNL1        0.1446
     32 C          67.3874   93.5151    9.3044 C.ar    1  UNL1        0.1446
     33 N          67.1558   92.4244   10.3077 N.ar    1  UNL1       -0.1447
@<TRIPOS>BOND
     1     9    10    1
     2    10    11   ar
     3    11    12   ar
     4    12    13   ar
     5    13    14   ar
     6    14     1    1
     7     1     2    2
     8     1     3   am
     9     3     4    1
    10     4     5    1
    11     5     6    1
    12     6     7    1
    13     7     8    1
    14     8    21    1
    15    21    22    1
    16    22    23   ar
    17    23    24   ar
    18    24    29    1
    19    29    30   ar
    20    30    31   ar
    21    31    32   ar
    22    32    33   ar
    23    24    25   ar
    24    25    26   ar
    25    26    27   ar
    26    27    28    1
    27    14    15   ar
    28    15    16    1
    29    16    17   ar
    30    17    18   ar
    31    18    19   ar
    32    19    20   ar
    33    15    10   ar
    34    20    16   ar
    35     8     3    1
    36    27    22   ar
    37    33    29   ar
@<TRIPOS>MOLECULE
*****
 33 37 0 0 0
SMALL
GASTEIGER

@<TRIPOS>ATOM
      1 C          63.5416   87.4146   13.3218 C.2     1  UNL1        0.2506
      2 O          63.5315   88.0360   11.9566 O.2     1  UNL1       -0.2699
      3 N          63.3987   88.2781   14.5400 N.am    1  UNL1       -0.2723
      4 C          63.4089   87.6567   15.9052 C.3     1  UNL1        0.1257
      5 C          63.2660   88.5203   17.1233 C.3     1  UNL1        0.1637
      6 O          63.1130   90.0052   16.9763 O.3     1  UNL1       -0.3502
      7 C          63.1029   90.6266   15.6111 C.3     1  UNL1        0.1622
      8 C          63.2458   89.7630   14.3929 C.3     1  UNL1        0.1096
      9 C          62.6225   82.6026   11.5896 C.3     1  UNL1        0.0327
     10 C          63.2351   83.5237   12.6028 C.ar    1  UNL1       -0.0023
     11 C          64.0006   82.9598   13.7630 C.ar    1  UNL1       -0.0027
     12 C          64.6131   83.8809   14.7761 C.ar    1  UNL1       -0.0001
     13 C          64.4601   85.3657   14.6291 C.ar    1  UNL1        0.0061
     14 C          63.6946   85.9296   13.4689 C.ar    1  UNL1        0.0726
     15 C          63.0821   85.0086   12.4557 C.ar    1  UNL1        0.1032
     16 N          62.3166   85.5724   11.2955 N.ar    1  UNL1       -0.1480
     17 N          61.0404   86.3563   11.3786 N.ar    1  UNL1       -0.1447
     18 C          60.6279   86.7197    9.9829 C.ar    1  UNL1        0.1446
     19 C          61.6492   86.1605    9.0373 C.ar    1  UNL1        0.1446
     20 N          62.6928   85.4515    9.8485 N.ar    1  UNL1       -0.1447
     21 C          63.2356   90.3844   13.0277 C.3     1  UNL1        0.0496
     22 C          64.3572   91.2868   12.6061 C.ar    1  UNL1       -0.0083
     23 C          65.4319   91.6552   13.5854 C.ar    1  UNL1        0.0175
     24 C          66.5536   92.5576   13.1638 C.ar    1  UNL1        0.1026
     25 C          66.6003   93.0916   11.7628 C.ar    1  UNL1        0.0218
     26 C          65.5255   92.7231   10.7835 C.ar    1  UNL1        0.0127
     27 C          64.4039   91.8207   11.2051 C.ar    1  UNL1        0.0538
     28 CL         63.3292   91.4523   10.2258 Cl      1  UNL1       -0.0826
     29 N          67.6283   92.9260   14.1431 N.ar    1  UNL1       -0.1478
     30 N          69.0497   92.4475   14.1136 N.ar    1  UNL1       -0.1447
     31 C          69.7703   93.0634   15.2761 C.ar    1  UNL1        0.1446
     32 C          68.7943   93.9225   16.0241 C.ar    1  UNL1        0.1446
     33 N          67.4705   93.8376   15.3238 N.ar    1  UNL1       -0.1447
@<TRIPOS>BOND
     1     9    10    1
     2    10    11   ar
     3    11    12   ar
     4    12    13   ar
     5    13    14   ar
     6    14     1    1
     7     1     2    2
     8     1     3   am
     9     3     4    1
    10     4     5    1
    11     5     6    1
    12     6     7    1
    13     7     8    1
    14     8    21    1
    15    21    22    1
    16    22    23   ar
    17    23    24   ar
    18    24    29    1
    19    29    30   ar
    20    30    31   ar
    21    31    32   ar
    22    32    33   ar
    23    24    25   ar
    24    25    26   ar
    25    26    27   ar
    26    27    28    1
    27    14    15   ar
    28    15    16    1
    29    16    17   ar
    30    17    18   ar
    31    18    19   ar
    32    19    20   ar
    33    15    10   ar
    34    20    16   ar
    35     8     3    1
    36    27    22   ar
    37    33    29   ar
@<TRIPOS>MOLECULE
*****
 33 37 0 0 0
SMALL
GASTEIGER

@<TRIPOS>ATOM
      1 C          63.8140   93.8100   -3.1987 C.2     1  UNL1        0.2506
      2 O          63.0977   92.5350   -2.8651 O.2     1  UNL1       -0.2699
      3 N          64.3223   94.6944   -2.0990 N.am    1  UNL1       -0.2723
      4 C          65.0386   95.9694   -2.4325 C.3     1  UNL1        0.1257
      5 C          65.5469   96.8539   -1.3328 C.3     1  UNL1        0.1637
      6 O          65.3389   96.4634    0.1004 O.3     1  UNL1       -0.3502
      7 C          64.6226   95.1883    0.4340 C.3     1  UNL1        0.1622
      8 C          64.1143   94.3039   -0.6657 C.3     1  UNL1        0.1096
      9 C          62.1272   96.1689   -7.5104 C.3     1  UNL1        0.0327
     10 C          63.1787   95.3799   -6.7878 C.ar    1  UNL1       -0.0023
     11 C          64.4381   94.9815   -7.4984 C.ar    1  UNL1       -0.0027
     12 C          65.4895   94.1926   -6.7759 C.ar    1  UNL1       -0.0001
     13 C          65.2815   93.8021   -5.3427 C.ar    1  UNL1        0.0061
     14 C          64.0220   94.2005   -4.6320 C.ar    1  UNL1        0.0726
     15 C          62.9706   94.9894   -5.3545 C.ar    1  UNL1        0.1032
     16 N          61.7112   95.3878   -4.6439 N.ar    1  UNL1       -0.1480
     17 N          61.5236   96.6165   -3.8041 N.ar    1  UNL1       -0.1447
     18 C          60.1147   96.6155   -3.2894 C.ar    1  UNL1        0.1446
     19 C          59.4314   95.3863   -3.8111 C.ar    1  UNL1        0.1446
     20 N          60.4181   94.6275   -4.6482 N.ar    1  UNL1       -0.1447
     21 C          63.3980   93.0289   -0.3322 C.3     1  UNL1        0.0496
     22 C          62.0938   93.0727    0.4074 C.ar    1  UNL1       -0.0083
     23 C          60.8226   93.3711   -0.3309 C.ar    1  UNL1        0.0175
     24 C          59.5183   93.4149    0.4087 C.ar    1  UNL1        0.1026
     25 C          59.4852   93.1605    1.8866 C.ar    1  UNL1        0.0218
     26 C          60.7565   92.8621    2.6249 C.ar    1  UNL1        0.0127
     27 C          62.0607   92.8183    1.8853 C.ar    1  UNL1        0.0538
     28 CL         63.3318   92.5200    2.6236 Cl      1  UNL1       -0.0826
     29 N          58.2472   93.7132   -0.3296 N.ar    1  UNL1       -0.1478
     30 N          57.2417   92.7034   -0.7977 N.ar    1  UNL1       -0.1447
     31 C          56.1314   93.4398   -1.4868 C.ar    1  UNL1        0.1446
     32 C          56.4507   94.9048   -1.4447 C.ar    1  UNL1        0.1446
     33 N          57.7583   95.0738   -0.7295 N.ar    1  UNL1       -0.1447
@<TRIPOS>BOND
     1     9    10    1
     2    10    11   ar
     3    11    12   ar
     4    12    13   ar
     5    13    14   ar
     6    14     1    1
     7     1     2    2
     8     1     3   am
     9     3     4    1
    10     4     5    1
    11     5     6    1
    12     6     7    1
    13     7     8    1
    14     8    21    1
    15    21    22    1
    16    22    23   ar
    17    23    24   ar
    18    24    29    1
    19    29    30   ar
    20    30    31   ar
    21    31    32   ar
    22    32    33   ar
    23    24    25   ar
    24    25    26   ar
    25    26    27   ar
    26    27    28    1
    27    14    15   ar
    28    15    16    1
    29    16    17   ar
    30    17    18   ar
    31    18    19   ar
    32    19    20   ar
    33    15    10   ar
    34    20    16   ar
    35     8     3    1
    36    27    22   ar
    37    33    29   ar
@<TRIPOS>MOLECULE
*****
 33 37 0 0 0
SMALL
GASTEIGER

@<TRIPOS>ATOM
      1 C          62.6083   94.8134   -2.2245 C.2     1  UNL1        0.2506
      2 O          61.5338   95.8597   -2.2486 O.2     1  UNL1       -0.2699
      3 N          63.0350   94.1470   -3.4988 N.am    1  UNL1       -0.2723
      4 C          64.1095   93.1007   -3.4747 C.3     1  UNL1        0.1257
      5 C          64.5361   92.4343   -4.7491 C.3     1  UNL1        0.1637
      6 O          63.8882   92.8141   -6.0475 O.3     1  UNL1       -0.3502
      7 C          62.8137   93.8605   -6.0716 C.3     1  UNL1        0.1622
      8 C          62.3870   94.5269   -4.7973 C.3     1  UNL1        0.1096
      9 C          62.3063   92.6605    2.4950 C.3     1  UNL1        0.0327
     10 C          63.1052   93.3571    1.4336 C.ar    1  UNL1       -0.0023
     11 C          64.5521   93.6739    1.6707 C.ar    1  UNL1       -0.0027
     12 C          65.3511   94.3704    0.6094 C.ar    1  UNL1       -0.0001
     13 C          64.7031   94.7503   -0.6890 C.ar    1  UNL1        0.0061
     14 C          63.2563   94.4335   -0.9261 C.ar    1  UNL1        0.0726
     15 C          62.4573   93.7370    0.1352 C.ar    1  UNL1        0.1032
     16 N          61.0104   93.4202   -0.1018 N.ar    1  UNL1       -0.1480
     17 N          60.4771   92.2082   -0.8066 N.ar    1  UNL1       -0.1447
     18 C          58.9799   92.2988   -0.8161 C.ar    1  UNL1        0.1446
     19 C          58.5878   93.5668   -0.1173 C.ar    1  UNL1        0.1446
     20 N          59.8428   94.2599    0.3242 N.ar    1  UNL1       -0.1447
     21 C          61.3125   95.5732   -4.8214 C.3     1  UNL1        0.0496
     22 C          59.9158   95.2047   -5.2258 C.ar    1  UNL1       -0.0083
     23 C          59.1456   94.1951   -4.4275 C.ar    1  UNL1        0.0175
     24 C          57.7489   93.8266   -4.8319 C.ar    1  UNL1        0.1026
     25 C          57.1225   94.4678   -6.0346 C.ar    1  UNL1        0.0218
     26 C          57.8928   95.4775   -6.8329 C.ar    1  UNL1        0.0127
     27 C          59.2894   95.8459   -6.4285 C.ar    1  UNL1        0.0538
     28 CL         60.0596   96.8556   -7.2268 Cl      1  UNL1       -0.0826
     29 N          56.9787   92.8169   -4.0336 N.ar    1  UNL1       -0.1478
     30 N          56.2080   93.0895   -2.7759 N.ar    1  UNL1       -0.1447
     31 C          55.5969   91.7985   -2.3178 C.ar    1  UNL1        0.1446
     32 C          55.9899   90.7280   -3.2924 C.ar    1  UNL1        0.1446
     33 N          56.8439   91.3575   -4.3528 N.ar    1  UNL1       -0.1447
@<TRIPOS>BOND
     1     9    10    1
     2    10    11   ar
     3    11    12   ar
     4    12    13   ar
     5    13    14   ar
     6    14     1    1
     7     1     2    2
     8     1     3   am
     9     3     4    1
    10     4     5    1
    11     5     6    1
    12     6     7    1
    13     7     8    1
    14     8    21    1
    15    21    22    1
    16    22    23   ar
    17    23    24   ar
    18    24    29    1
    19    29    30   ar
    20    30    31   ar
    21    31    32   ar
    22    32    33   ar
    23    24    25   ar
    24    25    26   ar
    25    26    27   ar
    26    27    28    1
    27    14    15   ar
    28    15    16    1
    29    16    17   ar
    30    17    18   ar
    31    18    19   ar
    32    19    20   ar
    33    15    10   ar
    34    20    16   ar
    35     8     3    1
    36    27    22   ar
    37    33    29   ar
