@<TRIPOS>MOLECULE
*****
 39 41 0 0 0
SMALL
GASTEIGER

@<TRIPOS>ATOM
      1 C          64.0301   89.1515   14.0467 C.3     1  UNL1        0.1621
      2 C          64.0461   90.3038   15.0068 C.ar    1  UNL1        0.1812
      3 N          63.1168   90.4967   16.1684 N.ar    1  UNL1       -0.1109
      4 N          63.4906   91.7777   16.8534 N.ar    1  UNL1       -0.0229
      5 N          64.6509   92.3766   16.1151 N.ar    1  UNL1       -0.0430
      6 N          64.9943   91.4657   14.9739 N.ar    1  UNL1       -0.2125
      7 C          66.0928   91.6792   13.9752 C.3     1  UNL1        0.1668
      8 C          67.5206   91.4403   14.3682 C.3     1  UNL1        0.1336
      9 C          68.2905   92.5103   15.0839 C.1     1  UNL1        0.0753
     10 N          69.0605   93.5804   15.7996 N.1     1  UNL1       -0.1958
     11 C          65.7638   92.1317   12.5834 C.3     1  UNL1        0.2309
     12 O          65.6302   93.5950   12.2822 O.3     1  UNL1       -0.4703
     13 C          66.3306   94.1831   11.0933 C.ar    1  UNL1        0.1720
     14 C          67.0317   93.2863   10.1165 C.ar    1  UNL1        0.0400
     15 C          67.7321   93.8743    8.9276 C.ar    1  UNL1        0.0033
     16 C          67.7313   95.3592    8.7154 C.ar    1  UNL1        0.0033
     17 C          67.0302   96.2561    9.6922 C.ar    1  UNL1        0.0398
     18 C          66.3298   95.6680   10.8811 C.ar    1  UNL1        0.1677
     19 O          65.6286   96.5648   11.8579 O.3     1  UNL1       -0.5029
     20 H          65.6281   97.4924   11.7253 H       1  UNL1        0.2923
     21 C          62.1671   89.7280   12.3302 C.2     1  UNL1        0.2351
     22 O          61.1818   89.8811   13.4509 O.2     1  UNL1       -0.2737
     23 N          63.5912   89.3633   12.6281 N.am    1  UNL1       -0.2965
     24 H          64.2378   89.2628   11.8925 H       1  UNL1        0.1499
     25 C          62.9980   90.6870   10.6302 C.3     1  UNL1        0.0249
     26 C          61.7281   89.9398   10.9115 C.3     1  UNL1        0.1086
     27 C          60.4583   89.1926   11.1929 C.3     1  UNL1        0.0249
     28 N          61.2892   90.1516    9.4929 N.3     1  UNL1       -0.3164
     29 H          60.4222   89.6409    9.3254 H       1  UNL1        0.1192
     30 H          62.0121   89.8113    8.8589 H       1  UNL1        0.1192
     31 C          64.4530   87.7874   14.5053 C.3     1  UNL1        0.1699
     32 O          63.8537   86.5651   13.8753 O.3     1  UNL1       -0.3468
     33 C          64.2391   85.2018   14.3680 C.3     1  UNL1        0.1687
     34 C          63.5167   83.9890   13.8607 C.ar    1  UNL1        0.0073
     35 C          63.5651   83.6427   12.4020 C.ar    1  UNL1       -0.0019
     36 C          62.8427   82.4299   11.8947 C.ar    1  UNL1       -0.0002
     37 C          62.0720   81.5635   12.8461 C.ar    1  UNL1       -0.0000
     38 C          62.0236   81.9097   14.3048 C.ar    1  UNL1       -0.0002
     39 C          62.7459   83.1225   14.8120 C.ar    1  UNL1       -0.0019
@<TRIPOS>BOND
     1    25    26    1
     2    26    27    1
     3    26    28    1
     4    26    21    1
     5    21    22    2
     6    21    23   am
     7    23     1    1
     8     1    31    1
     9    31    32    1
    10    32    33    1
    11    33    34    1
    12    34    35   ar
    13    35    36   ar
    14    36    37   ar
    15    37    38   ar
    16    38    39   ar
    17     1     2    1
    18     2     3   ar
    19     3     4   ar
    20     4     5   ar
    21     5     6   ar
    22     6     7    1
    23     7     8    1
    24     8     9    1
    25     9    10    3
    26     7    11    1
    27    11    12    1
    28    12    13    1
    29    13    14   ar
    30    14    15   ar
    31    15    16   ar
    32    16    17   ar
    33    17    18   ar
    34    18    19    1
    35    39    34   ar
    36     6     2   ar
    37    18    13   ar
    38    28    29    1
    39    28    30    1
    40    23    24    1
    41    19    20    1
@<TRIPOS>MOLECULE
*****
 39 41 0 0 0
SMALL
GASTEIGER

@<TRIPOS>ATOM
      1 C          63.8697   89.9883   14.3359 C.3     1  UNL1        0.1621
      2 C          64.2694   91.0581   15.3085 C.ar    1  UNL1        0.1812
      3 N          63.5604   91.3979   16.5860 N.ar    1  UNL1       -0.1109
      4 N          64.3010   92.5257   17.2413 N.ar    1  UNL1       -0.0229
      5 N          65.4678   92.8828   16.3689 N.ar    1  UNL1       -0.0430
      6 N          65.4482   91.9758   15.1743 N.ar    1  UNL1       -0.2125
      7 C          66.4344   91.9850   14.0441 C.3     1  UNL1        0.1668
      8 C          67.8836   91.7051   14.3110 C.3     1  UNL1        0.1336
      9 C          68.7049   92.6857   15.0945 C.1     1  UNL1        0.0753
     10 N          69.5262   93.6663   15.8782 N.1     1  UNL1       -0.1958
     11 C          65.9713   92.2740   12.6469 C.3     1  UNL1        0.2309
     12 O          65.6638   93.6832   12.2351 O.3     1  UNL1       -0.4703
     13 C          66.3333   94.2755   11.0305 C.ar    1  UNL1        0.1720
     14 C          67.0808   93.3912   10.0771 C.ar    1  UNL1        0.0400
     15 C          67.7503   93.9835    8.8726 C.ar    1  UNL1        0.0033
     16 C          67.6722   95.4603    8.6215 C.ar    1  UNL1        0.0033
     17 C          66.9246   96.3447    9.5749 C.ar    1  UNL1        0.0398
     18 C          66.2551   95.7523   10.7795 C.ar    1  UNL1        0.1677
     19 O          65.5076   96.6367   11.7329 O.3     1  UNL1       -0.5029
     20 H          65.4588   97.5592   11.5760 H       1  UNL1        0.2923
     21 C          63.5345   87.7949   15.6874 C.2     1  UNL1        0.2351
     22 O          62.4691   88.4621   16.5060 O.2     1  UNL1       -0.2737
     23 N          64.2347   88.5580   14.6024 N.am    1  UNL1       -0.2965
     24 H          64.9339   88.1202   14.0651 H       1  UNL1        0.1499
     25 C          63.0191   86.3662   17.1683 C.3     1  UNL1        0.0249
     26 C          63.8995   86.3646   15.9538 C.3     1  UNL1        0.1086
     27 C          64.7799   86.3630   14.7393 C.3     1  UNL1        0.0249
     28 N          64.2645   84.9343   16.2203 N.3     1  UNL1       -0.3164
     29 H          64.8349   84.5802   15.4523 H       1  UNL1        0.1192
     30 H          63.4148   84.3755   16.2985 H       1  UNL1        0.1192
     31 C          63.1050   90.3489   13.0970 C.3     1  UNL1        0.1699
     32 O          62.5438   89.2683   12.2208 O.3     1  UNL1       -0.3468
     33 C          62.4193   89.4904   10.7426 C.3     1  UNL1        0.1687
     34 C          61.6572   88.5120    9.8987 C.ar    1  UNL1        0.0073
     35 C          60.5053   88.9820    9.0608 C.ar    1  UNL1       -0.0019
     36 C          59.7433   88.0036    8.2170 C.ar    1  UNL1       -0.0002
     37 C          60.1333   86.5552    8.2111 C.ar    1  UNL1       -0.0000
     38 C          61.2852   86.0852    9.0490 C.ar    1  UNL1       -0.0002
     39 C          62.0472   87.0636    9.8928 C.ar    1  UNL1       -0.0019
@<TRIPOS>BOND
     1    25    26    1
     2    26    27    1
     3    26    28    1
     4    26    21    1
     5    21    22    2
     6    21    23   am
     7    23     1    1
     8     1    31    1
     9    31    32    1
    10    32    33    1
    11    33    34    1
    12    34    35   ar
    13    35    36   ar
    14    36    37   ar
    15    37    38   ar
    16    38    39   ar
    17     1     2    1
    18     2     3   ar
    19     3     4   ar
    20     4     5   ar
    21     5     6   ar
    22     6     7    1
    23     7     8    1
    24     8     9    1
    25     9    10    3
    26     7    11    1
    27    11    12    1
    28    12    13    1
    29    13    14   ar
    30    14    15   ar
    31    15    16   ar
    32    16    17   ar
    33    17    18   ar
    34    18    19    1
    35    39    34   ar
    36     6     2   ar
    37    18    13   ar
    38    28    29    1
    39    28    30    1
    40    23    24    1
    41    19    20    1
@<TRIPOS>MOLECULE
*****
 39 41 0 0 0
SMALL
GASTEIGER

@<TRIPOS>ATOM
      1 C          64.9379   90.9936   13.6352 C.3     1  UNL1        0.1621
      2 C          64.1298   90.5045   14.8003 C.ar    1  UNL1        0.1812
      3 N          63.6387   91.3398   15.9454 N.ar    1  UNL1       -0.1109
      4 N          62.8762   90.4458   16.8778 N.ar    1  UNL1       -0.0229
      5 N          62.8961   89.0579   16.3089 N.ar    1  UNL1       -0.0430
      6 N          63.6709   89.0942   15.0250 N.ar    1  UNL1       -0.2125
      7 C          63.9395   87.9255   14.1240 C.3     1  UNL1        0.1668
      8 C          64.8000   86.7932   14.6008 C.3     1  UNL1        0.1336
      9 C          64.1688   85.5073   15.0458 C.1     1  UNL1        0.0753
     10 N          63.5375   84.2213   15.4907 N.1     1  UNL1       -0.1958
     11 C          63.3476   87.8889   12.7462 C.3     1  UNL1        0.2309
     12 O          62.5640   86.6910   12.2980 O.3     1  UNL1       -0.4703
     13 C          61.8796   86.6989   10.9633 C.ar    1  UNL1        0.1720
     14 C          62.4981   85.9836    9.7989 C.ar    1  UNL1        0.0400
     15 C          61.8137   85.9916    8.4642 C.ar    1  UNL1        0.0033
     16 C          60.5108   86.7149    8.2939 C.ar    1  UNL1        0.0033
     17 C          59.8922   87.4302    9.4582 C.ar    1  UNL1        0.0398
     18 C          60.5766   87.4223   10.7929 C.ar    1  UNL1        0.1677
     19 O          59.9581   88.1376   11.9573 O.3     1  UNL1       -0.5029
     20 H          59.1441   88.5894   11.8508 H       1  UNL1        0.2923
     21 C          67.0169   92.4272   14.2455 C.2     1  UNL1        0.2351
     22 O          66.1202   93.5753   14.6032 O.2     1  UNL1       -0.2737
     23 N          66.4258   91.1364   13.7615 N.am    1  UNL1       -0.2965
     24 H          67.0143   90.3829   13.5267 H       1  UNL1        0.1499
     25 C          68.6873   91.7899   13.1037 C.3     1  UNL1        0.0249
     26 C          68.5048   92.5700   14.3719 C.3     1  UNL1        0.1086
     27 C          68.3222   93.3501   15.6400 C.3     1  UNL1        0.0249
     28 N          69.9926   92.7128   14.4982 N.3     1  UNL1       -0.3164
     29 H          70.2099   93.3242   15.2852 H       1  UNL1        0.1192
     30 H          70.3695   93.1159   13.6404 H       1  UNL1        0.1192
     31 C          64.2582   91.3399   12.3437 C.3     1  UNL1        0.1699
     32 O          64.5969   92.6192   11.6374 O.3     1  UNL1       -0.3468
     33 C          65.8617   92.7223   10.8377 C.3     1  UNL1        0.1687
     34 C          66.3435   94.0622   10.3656 C.ar    1  UNL1        0.0073
     35 C          66.1273   95.2791   11.2155 C.ar    1  UNL1       -0.0019
     36 C          66.6091   96.6188   10.7434 C.ar    1  UNL1       -0.0002
     37 C          67.3070   96.7417    9.4214 C.ar    1  UNL1       -0.0000
     38 C          67.5232   95.5248    8.5715 C.ar    1  UNL1       -0.0002
     39 C          67.0414   94.1850    9.0436 C.ar    1  UNL1       -0.0019
@<TRIPOS>BOND
     1    25    26    1
     2    26    27    1
     3    26    28    1
     4    26    21    1
     5    21    22    2
     6    21    23   am
     7    23     1    1
     8     1    31    1
     9    31    32    1
    10    32    33    1
    11    33    34    1
    12    34    35   ar
    13    35    36   ar
    14    36    37   ar
    15    37    38   ar
    16    38    39   ar
    17     1     2    1
    18     2     3   ar
    19     3     4   ar
    20     4     5   ar
    21     5     6   ar
    22     6     7    1
    23     7     8    1
    24     8     9    1
    25     9    10    3
    26     7    11    1
    27    11    12    1
    28    12    13    1
    29    13    14   ar
    30    14    15   ar
    31    15    16   ar
    32    16    17   ar
    33    17    18   ar
    34    18    19    1
    35    39    34   ar
    36     6     2   ar
    37    18    13   ar
    38    28    29    1
    39    28    30    1
    40    23    24    1
    41    19    20    1
@<TRIPOS>MOLECULE
*****
 39 41 0 0 0
SMALL
GASTEIGER

@<TRIPOS>ATOM
      1 C          63.9151   89.6460   14.2554 C.3     1  UNL1        0.1621
      2 C          63.6175   88.7291   15.4045 C.ar    1  UNL1        0.1812
      3 N          63.1954   89.1491   16.7812 N.ar    1  UNL1       -0.1109
      4 N          63.0068   87.9107   17.6063 N.ar    1  UNL1       -0.0229
      5 N          63.3124   86.7252   16.7395 N.ar    1  UNL1       -0.0430
      6 N          63.6899   87.2310   15.3787 N.ar    1  UNL1       -0.2125
      7 C          64.0725   86.3870   14.1993 C.3     1  UNL1        0.1668
      8 C          63.3734   86.5734   12.8853 C.3     1  UNL1        0.1336
      9 C          62.8518   85.3821   12.1377 C.1     1  UNL1        0.0753
     10 N          62.3303   84.1908   11.3901 N.1     1  UNL1       -0.1958
     11 C          65.1543   85.3565   14.3337 C.3     1  UNL1        0.2309
     12 O          64.8791   84.0697   15.0536 O.3     1  UNL1       -0.4703
     13 C          63.9550   83.0546   14.4487 C.ar    1  UNL1        0.1720
     14 C          64.4386   82.1659   13.3414 C.ar    1  UNL1        0.0400
     15 C          63.5146   81.1508   12.7366 C.ar    1  UNL1        0.0033
     16 C          62.1070   81.0246   13.2391 C.ar    1  UNL1        0.0033
     17 C          61.6233   81.9134   14.3464 C.ar    1  UNL1        0.0398
     18 C          62.5474   82.9285   14.9513 C.ar    1  UNL1        0.1677
     19 O          62.0638   83.8172   16.0586 O.3     1  UNL1       -0.5029
     20 H          61.1844   83.7384   16.3725 H       1  UNL1        0.2923
     21 C          65.5365   91.5669   14.9121 C.2     1  UNL1        0.2351
     22 O          64.4712   92.1696   15.7793 O.2     1  UNL1       -0.2737
     23 N          65.2584   90.3051   14.1502 N.am    1  UNL1       -0.2965
     24 H          65.9576   89.9096   13.5810 H       1  UNL1        0.1499
     25 C          66.7907   92.6374   16.2466 C.3     1  UNL1        0.0249
     26 C          66.8798   92.2260   14.8069 C.3     1  UNL1        0.1086
     27 C          66.9689   91.8146   13.3672 C.3     1  UNL1        0.0249
     28 N          68.2231   92.8851   14.7017 N.3     1  UNL1       -0.3164
     29 H          68.6267   92.6900   13.7855 H       1  UNL1        0.1192
     30 H          68.8385   92.5207   15.4289 H       1  UNL1        0.1192
     31 C          62.8693   89.9039   13.2114 C.3     1  UNL1        0.1699
     32 O          63.2282   89.8327   11.7567 O.3     1  UNL1       -0.3468
     33 C          62.2184   90.2149   10.7155 C.3     1  UNL1        0.1687
     34 C          61.5679   89.1549    9.8767 C.ar    1  UNL1        0.0073
     35 C          62.2100   87.8060    9.7422 C.ar    1  UNL1       -0.0019
     36 C          61.5596   86.7461    8.9035 C.ar    1  UNL1       -0.0002
     37 C          60.2671   87.0352    8.1992 C.ar    1  UNL1       -0.0000
     38 C          59.6250   88.3840    8.3338 C.ar    1  UNL1       -0.0002
     39 C          60.2754   89.4439    9.1725 C.ar    1  UNL1       -0.0019
@<TRIPOS>BOND
     1    25    26    1
     2    26    27    1
     3    26    28    1
     4    26    21    1
     5    21    22    2
     6    21    23   am
     7    23     1    1
     8     1    31    1
     9    31    32    1
    10    32    33    1
    11    33    34    1
    12    34    35   ar
    13    35    36   ar
    14    36    37   ar
    15    37    38   ar
    16    38    39   ar
    17     1     2    1
    18     2     3   ar
    19     3     4   ar
    20     4     5   ar
    21     5     6   ar
    22     6     7    1
    23     7     8    1
    24     8     9    1
    25     9    10    3
    26     7    11    1
    27    11    12    1
    28    12    13    1
    29    13    14   ar
    30    14    15   ar
    31    15    16   ar
    32    16    17   ar
    33    17    18   ar
    34    18    19    1
    35    39    34   ar
    36     6     2   ar
    37    18    13   ar
    38    28    29    1
    39    28    30    1
    40    23    24    1
    41    19    20    1
@<TRIPOS>MOLECULE
*****
 39 41 0 0 0
SMALL
GASTEIGER

@<TRIPOS>ATOM
      1 C          62.3384   87.7279   11.1035 C.3     1  UNL1        0.1621
      2 C          61.4322   88.9180   11.2143 C.ar    1  UNL1        0.1812
      3 N          59.9350   88.8977   11.1233 N.ar    1  UNL1       -0.1109
      4 N          59.4415   90.3045   11.2883 N.ar    1  UNL1       -0.0229
      5 N          60.6336   91.1943   11.4812 N.ar    1  UNL1       -0.0430
      6 N          61.8639   90.3374   11.4355 N.ar    1  UNL1       -0.2125
      7 C          63.2776   90.8159   11.5847 C.3     1  UNL1        0.1668
      8 C          63.9472   91.5409   10.4551 C.3     1  UNL1        0.1336
      9 C          64.8202   92.7273   10.7382 C.1     1  UNL1        0.0753
     10 N          65.6933   93.9138   11.0212 N.1     1  UNL1       -0.1958
     11 C          64.0219   90.5694   12.8636 C.3     1  UNL1        0.2309
     12 O          64.2176   91.6869   13.8448 O.3     1  UNL1       -0.4703
     13 C          65.5805   91.9595   14.4091 C.ar    1  UNL1        0.1720
     14 C          66.8004   91.7301   13.5671 C.ar    1  UNL1        0.0400
     15 C          68.1633   92.0026   14.1314 C.ar    1  UNL1        0.0033
     16 C          68.3060   92.5045   15.5377 C.ar    1  UNL1        0.0033
     17 C          67.0860   92.7339   16.3797 C.ar    1  UNL1        0.0398
     18 C          65.7232   92.4613   15.8154 C.ar    1  UNL1        0.1677
     19 O          64.5032   92.6907   16.6574 O.3     1  UNL1       -0.5029
     20 H          64.5924   93.0042   17.5359 H       1  UNL1        0.2923
     21 C          61.5111   86.1850    9.1839 C.2     1  UNL1        0.2351
     22 O          60.2331   85.9414    9.9304 O.2     1  UNL1       -0.2737
     23 N          62.5638   87.0783    9.7704 N.am    1  UNL1       -0.2965
     24 H          63.4025   87.2381    9.2804 H       1  UNL1        0.1499
     25 C          63.1405   85.1948    8.2540 C.3     1  UNL1        0.0249
     26 C          61.7364   85.5354    7.8507 C.3     1  UNL1        0.1086
     27 C          60.3324   85.8760    7.4474 C.3     1  UNL1        0.0249
     28 N          61.9618   84.8858    6.5176 N.3     1  UNL1       -0.3164
     29 H          61.0867   84.8722    5.9938 H       1  UNL1        0.1192
     30 H          62.2899   83.9300    6.6563 H       1  UNL1        0.1192
     31 C          63.0194   87.1875   12.3258 C.3     1  UNL1        0.1699
     32 O          62.6765   85.8174   12.8315 O.3     1  UNL1       -0.3468
     33 C          63.4635   84.6279   12.3671 C.3     1  UNL1        0.1687
     34 C          63.0038   83.2427   12.7137 C.ar    1  UNL1        0.0073
     35 C          62.3390   82.9812   14.0326 C.ar    1  UNL1       -0.0019
     36 C          61.8794   81.5960   14.3791 C.ar    1  UNL1       -0.0002
     37 C          62.0846   80.4725   13.4067 C.ar    1  UNL1       -0.0000
     38 C          62.7494   80.7341   12.0878 C.ar    1  UNL1       -0.0002
     39 C          63.2090   82.1192   11.7413 C.ar    1  UNL1       -0.0019
@<TRIPOS>BOND
     1    25    26    1
     2    26    27    1
     3    26    28    1
     4    26    21    1
     5    21    22    2
     6    21    23   am
     7    23     1    1
     8     1    31    1
     9    31    32    1
    10    32    33    1
    11    33    34    1
    12    34    35   ar
    13    35    36   ar
    14    36    37   ar
    15    37    38   ar
    16    38    39   ar
    17     1     2    1
    18     2     3   ar
    19     3     4   ar
    20     4     5   ar
    21     5     6   ar
    22     6     7    1
    23     7     8    1
    24     8     9    1
    25     9    10    3
    26     7    11    1
    27    11    12    1
    28    12    13    1
    29    13    14   ar
    30    14    15   ar
    31    15    16   ar
    32    16    17   ar
    33    17    18   ar
    34    18    19    1
    35    39    34   ar
    36     6     2   ar
    37    18    13   ar
    38    28    29    1
    39    28    30    1
    40    23    24    1
    41    19    20    1
@<TRIPOS>MOLECULE
*****
 39 41 0 0 0
SMALL
GASTEIGER

@<TRIPOS>ATOM
      1 C          63.0780   89.7658   12.2435 C.3     1  UNL1        0.1621
      2 C          61.7231   89.8299   11.6032 C.ar    1  UNL1        0.1812
      3 N          60.7749   90.9908   11.6602 N.ar    1  UNL1       -0.1109
      4 N          59.5442   90.6227   10.8857 N.ar    1  UNL1       -0.0229
      5 N          59.7318   89.2342   10.3500 N.ar    1  UNL1       -0.0430
      6 N          61.0783   88.7442   10.7935 N.ar    1  UNL1       -0.2125
      7 C          61.6753   87.4039   10.4819 C.3     1  UNL1        0.1668
      8 C          62.5287   87.2285    9.2608 C.3     1  UNL1        0.1336
      9 C          62.7634   85.8570    8.7006 C.1     1  UNL1        0.0753
     10 N          62.9981   84.4855    8.1401 N.1     1  UNL1       -0.1958
     11 C          61.4189   86.2388   11.3913 C.3     1  UNL1        0.2309
     12 O          62.5115   85.7295   12.2840 O.3     1  UNL1       -0.4703
     13 C          62.6026   84.2654   12.5974 C.ar    1  UNL1        0.1720
     14 C          62.9802   83.2903   11.5220 C.ar    1  UNL1        0.0400
     15 C          63.0714   81.8263   11.8354 C.ar    1  UNL1        0.0033
     16 C          62.7848   81.3374   13.2242 C.ar    1  UNL1        0.0033
     17 C          62.4072   82.3125   14.2996 C.ar    1  UNL1        0.0398
     18 C          62.3161   83.7766   13.9863 C.ar    1  UNL1        0.1677
     19 O          61.9385   84.7517   15.0617 O.3     1  UNL1       -0.5029
     20 H          61.7595   84.4463   15.9292 H       1  UNL1        0.2923
     21 C          63.3724   88.9107   14.6791 C.2     1  UNL1        0.2351
     22 O          63.0160   90.2715   15.1999 O.2     1  UNL1       -0.2737
     23 N          63.4034   88.6579   13.2009 N.am    1  UNL1       -0.2965
     24 H          63.6374   87.7647   12.8591 H       1  UNL1        0.1499
     25 C          64.4108   87.0660   14.5416 C.3     1  UNL1        0.0249
     26 C          63.6979   87.8028   15.6365 C.3     1  UNL1        0.1086
     27 C          62.9850   88.5396   16.7315 C.3     1  UNL1        0.0249
     28 N          64.0233   86.6949   16.5939 N.3     1  UNL1       -0.3164
     29 H          63.7241   86.9581   17.5329 H       1  UNL1        0.1192
     30 H          65.0297   86.5285   16.5920 H       1  UNL1        0.1192
     31 C          64.1074   90.8096   11.9264 C.3     1  UNL1        0.1699
     32 O          64.3302   91.9543   12.8698 O.3     1  UNL1       -0.3468
     33 C          65.6866   92.5859   12.9757 C.3     1  UNL1        0.1687
     34 C          66.3299   93.1891   11.7623 C.ar    1  UNL1        0.0073
     35 C          67.1973   92.3457   10.8757 C.ar    1  UNL1       -0.0019
     36 C          67.8405   92.9489    9.6623 C.ar    1  UNL1       -0.0002
     37 C          67.6163   94.3956    9.3356 C.ar    1  UNL1       -0.0000
     38 C          66.7489   95.2391   10.2222 C.ar    1  UNL1       -0.0002
     39 C          66.1057   94.6359   11.4355 C.ar    1  UNL1       -0.0019
@<TRIPOS>BOND
     1    25    26    1
     2    26    27    1
     3    26    28    1
     4    26    21    1
     5    21    22    2
     6    21    23   am
     7    23     1    1
     8     1    31    1
     9    31    32    1
    10    32    33    1
    11    33    34    1
    12    34    35   ar
    13    35    36   ar
    14    36    37   ar
    15    37    38   ar
    16    38    39   ar
    17     1     2    1
    18     2     3   ar
    19     3     4   ar
    20     4     5   ar
    21     5     6   ar
    22     6     7    1
    23     7     8    1
    24     8     9    1
    25     9    10    3
    26     7    11    1
    27    11    12    1
    28    12    13    1
    29    13    14   ar
    30    14    15   ar
    31    15    16   ar
    32    16    17   ar
    33    17    18   ar
    34    18    19    1
    35    39    34   ar
    36     6     2   ar
    37    18    13   ar
    38    28    29    1
    39    28    30    1
    40    23    24    1
    41    19    20    1
@<TRIPOS>MOLECULE
*****
 39 41 0 0 0
SMALL
GASTEIGER

@<TRIPOS>ATOM
      1 C          63.9239   89.1204   13.8669 C.3     1  UNL1        0.1621
      2 C          64.0383   90.2685   14.8253 C.ar    1  UNL1        0.1812
      3 N          63.2155   90.4688   16.0634 N.ar    1  UNL1       -0.1109
      4 N          63.6643   91.7420   16.7173 N.ar    1  UNL1       -0.0229
      5 N          64.7645   92.3285   15.8833 N.ar    1  UNL1       -0.0430
      6 N          64.9957   91.4179   14.7140 N.ar    1  UNL1       -0.2125
      7 C          66.0067   91.6209   13.6247 C.3     1  UNL1        0.1668
      8 C          67.4636   91.3973   13.9026 C.3     1  UNL1        0.1336
      9 C          68.1046   92.0320   15.1010 C.1     1  UNL1        0.0753
     10 N          68.7456   92.6666   16.2996 N.1     1  UNL1       -0.1958
     11 C          65.5608   92.0476   12.2575 C.3     1  UNL1        0.2309
     12 O          65.2164   93.4838   11.9951 O.3     1  UNL1       -0.4703
     13 C          65.9968   94.2693   10.9832 C.ar    1  UNL1        0.1720
     14 C          65.7404   95.7374   10.8133 C.ar    1  UNL1        0.0400
     15 C          66.5208   96.5229    9.8014 C.ar    1  UNL1        0.0033
     16 C          67.5576   95.8403    8.9594 C.ar    1  UNL1        0.0033
     17 C          67.8141   94.3721    9.1293 C.ar    1  UNL1        0.0398
     18 C          67.0337   93.5866   10.1412 C.ar    1  UNL1        0.1677
     19 O          67.2901   92.1185   10.3111 O.3     1  UNL1       -0.5029
     20 H          67.9378   91.6921    9.7851 H       1  UNL1        0.2923
     21 C          63.7633   86.5431   13.5814 C.2     1  UNL1        0.2351
     22 O          62.8255   86.7295   12.4256 O.2     1  UNL1       -0.2737
     23 N          64.3125   87.7385   14.3020 N.am    1  UNL1       -0.2965
     24 H          64.9280   87.6161   15.0606 H       1  UNL1        0.1499
     25 C          64.9027   85.7386   15.1797 C.3     1  UNL1        0.0249
     26 C          64.1519   85.1612   14.0166 C.3     1  UNL1        0.1086
     27 C          63.4010   84.5838   12.8535 C.3     1  UNL1        0.0249
     28 N          64.5405   83.7793   14.4518 N.3     1  UNL1       -0.3164
     29 H          64.0704   83.0924   13.8622 H       1  UNL1        0.1192
     30 H          64.2647   83.6387   15.4236 H       1  UNL1        0.1192
     31 C          63.4209   89.3542   12.4732 C.3     1  UNL1        0.1699
     32 O          61.9488   89.4933   12.2206 O.3     1  UNL1       -0.3468
     33 C          61.4546   89.8729   10.8562 C.3     1  UNL1        0.1687
     34 C          60.9529   88.8146    9.9189 C.ar    1  UNL1        0.0073
     35 C          60.0572   89.1889    8.7755 C.ar    1  UNL1       -0.0019
     36 C          59.5556   88.1307    7.8382 C.ar    1  UNL1       -0.0002
     37 C          59.9497   86.6981    8.0444 C.ar    1  UNL1       -0.0000
     38 C          60.8455   86.3239    9.1879 C.ar    1  UNL1       -0.0002
     39 C          61.3471   87.3821   10.1251 C.ar    1  UNL1       -0.0019
@<TRIPOS>BOND
     1    25    26    1
     2    26    27    1
     3    26    28    1
     4    26    21    1
     5    21    22    2
     6    21    23   am
     7    23     1    1
     8     1    31    1
     9    31    32    1
    10    32    33    1
    11    33    34    1
    12    34    35   ar
    13    35    36   ar
    14    36    37   ar
    15    37    38   ar
    16    38    39   ar
    17     1     2    1
    18     2     3   ar
    19     3     4   ar
    20     4     5   ar
    21     5     6   ar
    22     6     7    1
    23     7     8    1
    24     8     9    1
    25     9    10    3
    26     7    11    1
    27    11    12    1
    28    12    13    1
    29    13    14   ar
    30    14    15   ar
    31    15    16   ar
    32    16    17   ar
    33    17    18   ar
    34    18    19    1
    35    39    34   ar
    36     6     2   ar
    37    18    13   ar
    38    28    29    1
    39    28    30    1
    40    23    24    1
    41    19    20    1
@<TRIPOS>MOLECULE
*****
 39 41 0 0 0
SMALL
GASTEIGER

@<TRIPOS>ATOM
      1 C          63.1916   89.2847   12.6536 C.3     1  UNL1        0.1621
      2 C          61.8395   89.3511   12.0074 C.ar    1  UNL1        0.1812
      3 N          60.8401   90.4585   12.1657 N.ar    1  UNL1       -0.1109
      4 N          59.6324   90.1136   11.3456 N.ar    1  UNL1       -0.0229
      5 N          59.8855   88.7931   10.6806 N.ar    1  UNL1       -0.0430
      6 N          61.2495   88.3219   11.0896 N.ar    1  UNL1       -0.2125
      7 C          61.9079   87.0455   10.6567 C.3     1  UNL1        0.1668
      8 C          62.7991   87.0330    9.4502 C.3     1  UNL1        0.1336
      9 C          62.7616   85.8712    8.5022 C.1     1  UNL1        0.0753
     10 N          62.7241   84.7093    7.5542 N.1     1  UNL1       -0.1958
     11 C          61.6752   85.7816   11.4303 C.3     1  UNL1        0.2309
     12 O          62.8134   85.1241   12.1529 O.3     1  UNL1       -0.4703
     13 C          62.7255   83.6748   12.5295 C.ar    1  UNL1        0.1720
     14 C          63.0935   82.6169   11.5318 C.ar    1  UNL1        0.0400
     15 C          63.0055   81.1676   11.9084 C.ar    1  UNL1        0.0033
     16 C          62.5496   80.7763   13.2828 C.ar    1  UNL1        0.0033
     17 C          62.1816   81.8341   14.2805 C.ar    1  UNL1        0.0398
     18 C          62.2695   83.2834   13.9039 C.ar    1  UNL1        0.1677
     19 O          61.9015   84.3413   14.9016 O.3     1  UNL1       -0.5029
     20 H          61.6167   84.0968   15.7601 H       1  UNL1        0.2923
     21 C          63.5185   87.9592   14.8640 C.2     1  UNL1        0.2351
     22 O          62.9881   89.1265   15.6425 O.2     1  UNL1       -0.2737
     23 N          63.6203   88.0383   13.3695 N.am    1  UNL1       -0.2965
     24 H          63.9684   87.2722   12.8586 H       1  UNL1        0.1499
     25 C          63.1297   87.1159   16.7712 C.3     1  UNL1        0.0249
     26 C          63.9472   86.7128   15.5800 C.3     1  UNL1        0.1086
     27 C          64.7648   86.3096   14.3887 C.3     1  UNL1        0.0249
     28 N          64.3759   85.4663   16.2959 N.3     1  UNL1       -0.3164
     29 H          64.9191   84.8800   15.6622 H       1  UNL1        0.1192
     30 H          63.5517   84.9544   16.6105 H       1  UNL1        0.1192
     31 C          64.1149   90.4648   12.5837 C.3     1  UNL1        0.1699
     32 O          63.9988   91.5688   13.5926 O.3     1  UNL1       -0.3468
     33 C          64.7555   91.4863   14.8851 C.3     1  UNL1        0.1687
     34 C          66.1814   91.9476   14.9502 C.ar    1  UNL1        0.0073
     35 C          66.6637   92.7282   16.1367 C.ar    1  UNL1       -0.0019
     36 C          68.0895   93.1895   16.2017 C.ar    1  UNL1       -0.0002
     37 C          69.0330   92.8701   15.0802 C.ar    1  UNL1       -0.0000
     38 C          68.5507   92.0895   13.8937 C.ar    1  UNL1       -0.0002
     39 C          67.1249   91.6282   13.8287 C.ar    1  UNL1       -0.0019
@<TRIPOS>BOND
     1    25    26    1
     2    26    27    1
     3    26    28    1
     4    26    21    1
     5    21    22    2
     6    21    23   am
     7    23     1    1
     8     1    31    1
     9    31    32    1
    10    32    33    1
    11    33    34    1
    12    34    35   ar
    13    35    36   ar
    14    36    37   ar
    15    37    38   ar
    16    38    39   ar
    17     1     2    1
    18     2     3   ar
    19     3     4   ar
    20     4     5   ar
    21     5     6   ar
    22     6     7    1
    23     7     8    1
    24     8     9    1
    25     9    10    3
    26     7    11    1
    27    11    12    1
    28    12    13    1
    29    13    14   ar
    30    14    15   ar
    31    15    16   ar
    32    16    17   ar
    33    17    18   ar
    34    18    19    1
    35    39    34   ar
    36     6     2   ar
    37    18    13   ar
    38    28    29    1
    39    28    30    1
    40    23    24    1
    41    19    20    1
@<TRIPOS>MOLECULE
*****
 39 41 0 0 0
SMALL
GASTEIGER

@<TRIPOS>ATOM
      1 C          62.4651   87.3090   11.5004 C.3     1  UNL1        0.1621
      2 C          61.4468   88.4075   11.5782 C.ar    1  UNL1        0.1812
      3 N          59.9572   88.2314   11.5666 N.ar    1  UNL1       -0.1109
      4 N          59.3290   89.5901   11.6625 N.ar    1  UNL1       -0.0229
      5 N          60.4304   90.6060   11.7334 N.ar    1  UNL1       -0.0430
      6 N          61.7392   89.8751   11.6813 N.ar    1  UNL1       -0.2125
      7 C          63.1013   90.5018   11.7247 C.3     1  UNL1        0.1668
      8 C          63.6307   91.2295   10.5246 C.3     1  UNL1        0.1336
      9 C          64.5558   92.3966   10.7029 C.1     1  UNL1        0.0753
     10 N          65.4810   93.5639   10.8812 N.1     1  UNL1       -0.1958
     11 C          63.9342   90.4009   12.9682 C.3     1  UNL1        0.2309
     12 O          64.1426   91.6097   13.8315 O.3     1  UNL1       -0.4703
     13 C          65.5024   91.9063   14.3910 C.ar    1  UNL1        0.1720
     14 C          66.7236   91.6939   13.5464 C.ar    1  UNL1        0.0400
     15 C          68.0834   91.9905   14.1059 C.ar    1  UNL1        0.0033
     16 C          68.2218   92.4995   15.5101 C.ar    1  UNL1        0.0033
     17 C          67.0006   92.7119   16.3547 C.ar    1  UNL1        0.0398
     18 C          65.6408   92.4153   15.7952 C.ar    1  UNL1        0.1677
     19 O          64.4196   92.6277   16.6398 O.3     1  UNL1       -0.5029
     20 H          64.5061   92.9456   17.5170 H       1  UNL1        0.2923
     21 C          62.9455   85.8370   13.5867 C.2     1  UNL1        0.2351
     22 O          61.7307   85.0109   13.2836 O.2     1  UNL1       -0.2737
     23 N          63.3127   86.9860   12.6951 N.am    1  UNL1       -0.2965
     24 H          64.1101   87.5282   12.8940 H       1  UNL1        0.1499
     25 C          62.9643   84.2907   15.0387 C.3     1  UNL1        0.0249
     26 C          63.7932   85.5141   14.7814 C.3     1  UNL1        0.1086
     27 C          64.6220   86.7375   14.5240 C.3     1  UNL1        0.0249
     28 N          64.6408   85.1911   15.9760 N.3     1  UNL1       -0.3164
     29 H          65.4204   85.8468   16.0271 H       1  UNL1        0.1192
     30 H          65.0010   84.2407   15.8904 H       1  UNL1        0.1192
     31 C          62.6358   86.5333   10.2279 C.3     1  UNL1        0.1699
     32 O          62.2839   85.0758   10.1850 O.3     1  UNL1       -0.3468
     33 C          63.3707   84.0424   10.1552 C.3     1  UNL1        0.1687
     34 C          63.4766   83.0333   11.2601 C.ar    1  UNL1        0.0073
     35 C          64.7200   82.9645   12.0963 C.ar    1  UNL1       -0.0019
     36 C          64.8259   81.9554   13.2011 C.ar    1  UNL1       -0.0002
     37 C          63.6884   81.0152   13.4696 C.ar    1  UNL1       -0.0000
     38 C          62.4451   81.0839   12.6333 C.ar    1  UNL1       -0.0002
     39 C          62.3392   82.0930   11.5286 C.ar    1  UNL1       -0.0019
@<TRIPOS>BOND
     1    25    26    1
     2    26    27    1
     3    26    28    1
     4    26    21    1
     5    21    22    2
     6    21    23   am
     7    23     1    1
     8     1    31    1
     9    31    32    1
    10    32    33    1
    11    33    34    1
    12    34    35   ar
    13    35    36   ar
    14    36    37   ar
    15    37    38   ar
    16    38    39   ar
    17     1     2    1
    18     2     3   ar
    19     3     4   ar
    20     4     5   ar
    21     5     6   ar
    22     6     7    1
    23     7     8    1
    24     8     9    1
    25     9    10    3
    26     7    11    1
    27    11    12    1
    28    12    13    1
    29    13    14   ar
    30    14    15   ar
    31    15    16   ar
    32    16    17   ar
    33    17    18   ar
    34    18    19    1
    35    39    34   ar
    36     6     2   ar
    37    18    13   ar
    38    28    29    1
    39    28    30    1
    40    23    24    1
    41    19    20    1
