@<TRIPOS>MOLECULE
*****
 29 32 0 0 0
SMALL
GASTEIGER

@<TRIPOS>ATOM
      1 C          63.9256   87.3634   13.9873 C.2     1  UNL1        0.2252
      2 O          63.1467   87.2217   12.7134 O.2     1  UNL1       -0.2750
      3 N          63.9946   88.6919   14.6805 N.am    1  UNL1       -0.3003
      4 H          64.5059   88.7849   15.5167 H       1  UNL1        0.1497
      5 C          64.6357   86.1765   14.5682 C.3     1  UNL1        0.1154
      6 C          63.7627   85.6395   16.2943 C.3     1  UNL1        0.0335
      7 C          63.8578   84.9562   14.9623 C.3     1  UNL1        0.1377
      8 C          64.1154   84.5280   13.5480 C.3     1  UNL1        0.0613
      9 C          63.4768   83.1857   13.3464 C.3     1  UNL1        0.1290
     10 C          62.7917   81.8524   13.2945 C.3     1  UNL1        0.0305
     11 C          62.8033   81.0521   12.0259 C.3     1  UNL1        0.0025
     12 C          63.5001   81.5851   10.8092 C.3     1  UNL1        0.0002
     13 C          64.1852   82.9185   10.8611 C.3     1  UNL1        0.0025
     14 C          64.1735   83.7188   12.1297 C.3     1  UNL1        0.0305
     15 O          62.8244   82.7844   14.6361 O.3     1  UNL1       -0.2256
     16 O          63.0599   83.8786   15.6349 O.3     1  UNL1       -0.2251
     17 C          63.2846   89.8786   14.0996 C.3     1  UNL1        0.1176
     18 C          63.9896   90.7685   13.1193 C.ar    1  UNL1        0.0108
     19 C          65.1714   91.5808   13.5590 C.ar    1  UNL1       -0.0014
     20 C          65.8765   92.4707   12.5787 C.ar    1  UNL1       -0.0002
     21 C          65.3996   92.5482   11.1586 C.ar    1  UNL1        0.0012
     22 C          64.2179   91.7360   10.7189 C.ar    1  UNL1        0.0143
     23 C          63.5128   90.8460   11.6992 C.ar    1  UNL1        0.0454
     24 N          62.3310   90.0337   11.2595 N.pl3   1  UNL1       -0.3077
     25 C          62.4567   89.0960   10.0954 C.3     1  UNL1        0.0908
     26 C          61.2748   88.2837    9.6557 C.3     1  UNL1        0.0215
     27 C          59.9673   88.4091   10.3799 C.3     1  UNL1        0.0035
     28 C          59.8416   89.3468   11.5439 C.3     1  UNL1        0.0215
     29 C          61.0233   90.1591   11.9837 C.3     1  UNL1        0.0908
@<TRIPOS>BOND
     1     6     7    1
     2     7     5    1
     3     5     1    1
     4     1     2    2
     5     1     3   am
     6     3    17    1
     7    17    18    1
     8    18    19   ar
     9    19    20   ar
    10    20    21   ar
    11    21    22   ar
    12    22    23   ar
    13    23    24    1
    14    24    25    1
    15    25    26    1
    16    26    27    1
    17    27    28    1
    18    28    29    1
    19     7     8    1
    20     8     9    1
    21     9    10    1
    22    10    11    1
    23    11    12    1
    24    12    13    1
    25    13    14    1
    26     9    15    1
    27    15    16    1
    28    16     7    1
    29    23    18   ar
    30    29    24    1
    31    14     9    1
    32     3     4    1
@<TRIPOS>MOLECULE
*****
 29 32 0 0 0
SMALL
GASTEIGER

@<TRIPOS>ATOM
      1 C          62.1142   86.0180   10.3597 C.2     1  UNL1        0.2252
      2 O          62.8204   85.8377    9.0488 O.2     1  UNL1       -0.2750
      3 N          62.4226   85.1054   11.5096 N.am    1  UNL1       -0.3003
      4 H          61.9591   85.2238   12.3701 H       1  UNL1        0.1497
      5 C          61.0995   87.1110   10.5209 C.3     1  UNL1        0.1154
      6 C          60.5755   88.3200    9.0065 C.3     1  UNL1        0.0335
      7 C          61.4660   88.5285   10.1953 C.3     1  UNL1        0.1377
      8 C          62.2800   88.4408   11.4522 C.3     1  UNL1        0.0613
      9 C          62.9635   89.7606   11.6550 C.3     1  UNL1        0.1290
     10 C          63.5770   91.1276   11.7254 C.3     1  UNL1        0.0305
     11 C          64.4914   91.4817   12.8604 C.3     1  UNL1        0.0025
     12 C          64.7924   90.4688   13.9251 C.3     1  UNL1        0.0002
     13 C          64.1789   89.1019   13.8547 C.3     1  UNL1        0.0025
     14 C          63.2645   88.7477   12.7197 C.3     1  UNL1        0.0305
     15 O          62.5719   90.6640   10.5234 O.3     1  UNL1       -0.2256
     16 O          61.6464   89.9026    9.6212 O.3     1  UNL1       -0.2251
     17 C          63.4373   84.0125   11.3484 C.3     1  UNL1        0.1176
     18 C          63.1835   82.6597   11.9444 C.ar    1  UNL1        0.0108
     19 C          62.9635   81.4755   11.0504 C.ar    1  UNL1       -0.0014
     20 C          62.7096   80.1226   11.6464 C.ar    1  UNL1       -0.0002
     21 C          62.6758   79.9539   13.1365 C.ar    1  UNL1        0.0012
     22 C          62.8958   81.1380   14.0305 C.ar    1  UNL1        0.0143
     23 C          63.1496   82.4909   13.4345 C.ar    1  UNL1        0.0454
     24 N          63.3696   83.6750   14.3286 N.pl3   1  UNL1       -0.3077
     25 C          64.6306   84.4791   14.2117 C.3     1  UNL1        0.0908
     26 C          64.8506   85.6632   15.1058 C.3     1  UNL1        0.0215
     27 C          63.8096   86.0434   16.1167 C.3     1  UNL1        0.0035
     28 C          62.5487   85.2394   16.2335 C.3     1  UNL1        0.0215
     29 C          62.3286   84.0552   15.3395 C.3     1  UNL1        0.0908
@<TRIPOS>BOND
     1     6     7    1
     2     7     5    1
     3     5     1    1
     4     1     2    2
     5     1     3   am
     6     3    17    1
     7    17    18    1
     8    18    19   ar
     9    19    20   ar
    10    20    21   ar
    11    21    22   ar
    12    22    23   ar
    13    23    24    1
    14    24    25    1
    15    25    26    1
    16    26    27    1
    17    27    28    1
    18    28    29    1
    19     7     8    1
    20     8     9    1
    21     9    10    1
    22    10    11    1
    23    11    12    1
    24    12    13    1
    25    13    14    1
    26     9    15    1
    27    15    16    1
    28    16     7    1
    29    23    18   ar
    30    29    24    1
    31    14     9    1
    32     3     4    1
@<TRIPOS>MOLECULE
*****
 29 32 0 0 0
SMALL
GASTEIGER

@<TRIPOS>ATOM
      1 C          63.9522   87.3341   15.3946 C.2     1  UNL1        0.2252
      2 O          63.1672   87.9046   16.5384 O.2     1  UNL1       -0.2750
      3 N          64.2969   88.1971   14.2171 N.am    1  UNL1       -0.3003
      4 H          64.8122   87.8226   13.4664 H       1  UNL1        0.1497
      5 C          64.3925   85.9004   15.4283 C.3     1  UNL1        0.1154
      6 C          63.0087   85.3314   16.7666 C.3     1  UNL1        0.0335
      7 C          63.3715   84.8018   15.4109 C.3     1  UNL1        0.1377
      8 C          63.9476   84.5018   14.0589 C.3     1  UNL1        0.0613
      9 C          63.2068   83.3284   13.4892 C.3     1  UNL1        0.1290
     10 C          62.3816   82.1546   13.0521 C.3     1  UNL1        0.0305
     11 C          62.6310   81.5182   11.7169 C.3     1  UNL1        0.0025
     12 C          63.7056   82.0556   10.8189 C.3     1  UNL1        0.0002
     13 C          64.5308   83.2294   11.2561 C.3     1  UNL1        0.0025
     14 C          64.2814   83.8658   12.5912 C.3     1  UNL1        0.0305
     15 O          62.1728   82.9032   14.4893 O.3     1  UNL1       -0.2256
     16 O          62.2746   83.8138   15.6770 O.3     1  UNL1       -0.2251
     17 C          63.8567   89.6306   14.1835 C.3     1  UNL1        0.1176
     18 C          63.8997   90.3983   12.8956 C.ar    1  UNL1        0.0108
     19 C          62.9513   90.0546   11.7855 C.ar    1  UNL1       -0.0014
     20 C          62.9943   90.8223   10.4976 C.ar    1  UNL1       -0.0002
     21 C          63.9857   91.9339   10.3198 C.ar    1  UNL1        0.0012
     22 C          64.9340   92.2776   11.4299 C.ar    1  UNL1        0.0143
     23 C          64.8911   91.5099   12.7179 C.ar    1  UNL1        0.0454
     24 N          65.8394   91.8536   13.8279 N.pl3   1  UNL1       -0.3077
     25 C          67.3187   91.8484   13.5792 C.3     1  UNL1        0.0908
     26 C          68.2671   92.1922   14.6894 C.3     1  UNL1        0.0215
     27 C          67.7362   92.5412   16.0482 C.3     1  UNL1        0.0035
     28 C          66.2570   92.5465   16.2968 C.3     1  UNL1        0.0215
     29 C          65.3086   92.2027   15.1868 C.3     1  UNL1        0.0908
@<TRIPOS>BOND
     1     6     7    1
     2     7     5    1
     3     5     1    1
     4     1     2    2
     5     1     3   am
     6     3    17    1
     7    17    18    1
     8    18    19   ar
     9    19    20   ar
    10    20    21   ar
    11    21    22   ar
    12    22    23   ar
    13    23    24    1
    14    24    25    1
    15    25    26    1
    16    26    27    1
    17    27    28    1
    18    28    29    1
    19     7     8    1
    20     8     9    1
    21     9    10    1
    22    10    11    1
    23    11    12    1
    24    12    13    1
    25    13    14    1
    26     9    15    1
    27    15    16    1
    28    16     7    1
    29    23    18   ar
    30    29    24    1
    31    14     9    1
    32     3     4    1
@<TRIPOS>MOLECULE
*****
 29 32 0 0 0
SMALL
GASTEIGER

@<TRIPOS>ATOM
      1 C          60.8697   88.8965   11.3175 C.2     1  UNL1        0.2252
      2 O          59.7440   89.8869   11.3567 O.2     1  UNL1       -0.2750
      3 N          62.2672   89.3361   11.6400 N.am    1  UNL1       -0.3003
      4 H          63.0061   88.6860   11.6143 H       1  UNL1        0.1497
      5 C          60.5981   87.4662   10.9557 C.3     1  UNL1        0.1154
      6 C          60.8077   87.8414    8.9949 C.3     1  UNL1        0.0335
      7 C          61.4092   86.7961    9.8867 C.3     1  UNL1        0.1377
      8 C          61.8412   85.8908   11.0020 C.3     1  UNL1        0.0613
      9 C          62.7936   84.8796   10.4358 C.3     1  UNL1        0.1290
     10 C          63.7256   83.9392    9.7309 C.3     1  UNL1        0.0305
     11 C          64.4025   82.8406   10.4957 C.3     1  UNL1        0.0025
     12 C          64.1474   82.6825   11.9654 C.3     1  UNL1        0.0002
     13 C          63.2154   83.6229   12.6703 C.3     1  UNL1        0.0025
     14 C          62.5385   84.7215   11.9055 C.3     1  UNL1        0.0305
     15 O          62.9503   85.1600    8.9706 O.3     1  UNL1       -0.2256
     16 O          62.0946   86.3444    8.6312 O.3     1  UNL1       -0.2251
     17 C          62.5387   90.7663   12.0018 C.3     1  UNL1        0.1176
     18 C          63.9476   91.2809   12.0194 C.ar    1  UNL1        0.0108
     19 C          64.4720   92.0713   10.8575 C.ar    1  UNL1       -0.0014
     20 C          65.8808   92.5860   10.8751 C.ar    1  UNL1       -0.0002
     21 C          66.7652   92.3101   12.0548 C.ar    1  UNL1        0.0012
     22 C          66.2409   91.5197   13.2167 C.ar    1  UNL1        0.0143
     23 C          64.8320   91.0051   13.1991 C.ar    1  UNL1        0.0454
     24 N          64.3077   90.2147   14.3611 N.pl3   1  UNL1       -0.3077
     25 C          63.7576   90.9235   15.5632 C.3     1  UNL1        0.0908
     26 C          63.2332   90.1330   16.7252 C.3     1  UNL1        0.0215
     27 C          63.2589   88.6338   16.6851 C.3     1  UNL1        0.0035
     28 C          63.8090   87.9250   15.4830 C.3     1  UNL1        0.0215
     29 C          64.3333   88.7154   14.3210 C.3     1  UNL1        0.0908
@<TRIPOS>BOND
     1     6     7    1
     2     7     5    1
     3     5     1    1
     4     1     2    2
     5     1     3   am
     6     3    17    1
     7    17    18    1
     8    18    19   ar
     9    19    20   ar
    10    20    21   ar
    11    21    22   ar
    12    22    23   ar
    13    23    24    1
    14    24    25    1
    15    25    26    1
    16    26    27    1
    17    27    28    1
    18    28    29    1
    19     7     8    1
    20     8     9    1
    21     9    10    1
    22    10    11    1
    23    11    12    1
    24    12    13    1
    25    13    14    1
    26     9    15    1
    27    15    16    1
    28    16     7    1
    29    23    18   ar
    30    29    24    1
    31    14     9    1
    32     3     4    1
@<TRIPOS>MOLECULE
*****
 29 32 0 0 0
SMALL
GASTEIGER

@<TRIPOS>ATOM
      1 C          62.8360   89.8275   11.4536 C.2     1  UNL1        0.2252
      2 O          62.8462   90.5474   10.1378 O.2     1  UNL1       -0.2750
      3 N          63.6560   90.3451   12.5981 N.am    1  UNL1       -0.3003
      4 H          63.6493   89.8727   13.4618 H       1  UNL1        0.1497
      5 C          62.0058   88.5900   11.6251 C.3     1  UNL1        0.1154
      6 C          60.1389   89.3210   11.5259 C.3     1  UNL1        0.0335
      7 C          60.8685   88.3139   10.6870 C.3     1  UNL1        0.1377
      8 C          61.8358   87.3646   10.0443 C.3     1  UNL1        0.0613
      9 C          61.1437   86.7123    8.8843 C.3     1  UNL1        0.1290
     10 C          60.3256   86.1459    7.7619 C.3     1  UNL1        0.0305
     11 C          60.9237   85.1264    6.8383 C.3     1  UNL1        0.0025
     12 C          62.3397   84.6735    7.0371 C.3     1  UNL1        0.0002
     13 C          63.1578   85.2399    8.1595 C.3     1  UNL1        0.0025
     14 C          62.5598   86.2594    9.0831 C.3     1  UNL1        0.0305
     15 O          59.7487   87.2585    8.8100 O.3     1  UNL1       -0.2256
     16 O          59.5785   88.2484    9.9242 O.3     1  UNL1       -0.2251
     17 C          64.4861   91.5826   12.4266 C.3     1  UNL1        0.1176
     18 C          65.3559   92.0639   13.5499 C.ar    1  UNL1        0.0108
     19 C          65.0444   91.6673   14.9625 C.ar    1  UNL1       -0.0014
     20 C          65.9142   92.1486   16.0858 C.ar    1  UNL1       -0.0002
     21 C          67.0955   93.0265   15.7964 C.ar    1  UNL1        0.0012
     22 C          67.4071   93.4231   14.3839 C.ar    1  UNL1        0.0143
     23 C          66.5373   92.9418   13.2605 C.ar    1  UNL1        0.0454
     24 N          66.8488   93.3384   11.8479 N.pl3   1  UNL1       -0.3077
     25 C          67.6309   92.4125   10.9640 C.3     1  UNL1        0.0908
     26 C          67.9424   92.8091    9.5513 C.3     1  UNL1        0.0215
     27 C          67.4719   94.1316    9.0225 C.3     1  UNL1        0.0035
     28 C          66.6899   95.0575    9.9064 C.3     1  UNL1        0.0215
     29 C          66.3783   94.6609   11.3190 C.3     1  UNL1        0.0908
@<TRIPOS>BOND
     1     6     7    1
     2     7     5    1
     3     5     1    1
     4     1     2    2
     5     1     3   am
     6     3    17    1
     7    17    18    1
     8    18    19   ar
     9    19    20   ar
    10    20    21   ar
    11    21    22   ar
    12    22    23   ar
    13    23    24    1
    14    24    25    1
    15    25    26    1
    16    26    27    1
    17    27    28    1
    18    28    29    1
    19     7     8    1
    20     8     9    1
    21     9    10    1
    22    10    11    1
    23    11    12    1
    24    12    13    1
    25    13    14    1
    26     9    15    1
    27    15    16    1
    28    16     7    1
    29    23    18   ar
    30    29    24    1
    31    14     9    1
    32     3     4    1
@<TRIPOS>MOLECULE
*****
 29 32 0 0 0
SMALL
GASTEIGER

@<TRIPOS>ATOM
      1 C          62.3974   88.8938   12.0208 C.2     1  UNL1        0.2252
      2 O          63.5776   88.2374   12.6735 O.2     1  UNL1       -0.2750
      3 N          61.2763   88.0556   11.4814 N.am    1  UNL1       -0.3003
      4 H          60.5016   88.4864   11.0530 H       1  UNL1        0.1497
      5 C          62.3381   90.3884   11.9074 C.3     1  UNL1        0.1154
      6 C          62.8966   90.9316   10.0573 C.3     1  UNL1        0.0335
      7 C          63.5270   91.1497   11.4008 C.3     1  UNL1        0.1377
      8 C          63.9088   91.2087   12.8502 C.3     1  UNL1        0.0613
      9 C          65.2021   91.9610   12.9587 C.3     1  UNL1        0.1290
     10 C          66.4901   92.7282   12.9108 C.3     1  UNL1        0.0305
     11 C          67.2351   93.0227   14.1790 C.3     1  UNL1        0.0025
     12 C          66.6921   92.5501   15.4949 C.3     1  UNL1        0.0002
     13 C          65.4040   91.7829   15.5427 C.3     1  UNL1        0.0025
     14 C          64.6590   91.4883   14.2746 C.3     1  UNL1        0.0305
     15 O          65.6195   92.3669   11.5763 O.3     1  UNL1       -0.2256
     16 O          64.5842   91.8656   10.6134 O.3     1  UNL1       -0.2251
     17 C          61.3356   86.5611   11.5949 C.3     1  UNL1        0.1176
     18 C          62.1107   85.7628   10.5890 C.ar    1  UNL1        0.0108
     19 C          62.0779   86.1479    9.1396 C.ar    1  UNL1       -0.0014
     20 C          62.8530   85.3496    8.1337 C.ar    1  UNL1       -0.0002
     21 C          63.6610   84.1662    8.5772 C.ar    1  UNL1        0.0012
     22 C          63.6938   83.7810   10.0264 C.ar    1  UNL1        0.0143
     23 C          62.9187   84.5794   11.0324 C.ar    1  UNL1        0.0454
     24 N          62.9515   84.1942   12.4817 N.pl3   1  UNL1       -0.3077
     25 C          63.5676   85.1187   13.4897 C.3     1  UNL1        0.0908
     26 C          63.6004   84.7335   14.9390 C.3     1  UNL1        0.0215
     27 C          63.0172   83.4239   15.3804 C.3     1  UNL1        0.0035
     28 C          62.4011   82.4996   14.3725 C.3     1  UNL1        0.0215
     29 C          62.3682   82.8846   12.9232 C.3     1  UNL1        0.0908
@<TRIPOS>BOND
     1     6     7    1
     2     7     5    1
     3     5     1    1
     4     1     2    2
     5     1     3   am
     6     3    17    1
     7    17    18    1
     8    18    19   ar
     9    19    20   ar
    10    20    21   ar
    11    21    22   ar
    12    22    23   ar
    13    23    24    1
    14    24    25    1
    15    25    26    1
    16    26    27    1
    17    27    28    1
    18    28    29    1
    19     7     8    1
    20     8     9    1
    21     9    10    1
    22    10    11    1
    23    11    12    1
    24    12    13    1
    25    13    14    1
    26     9    15    1
    27    15    16    1
    28    16     7    1
    29    23    18   ar
    30    29    24    1
    31    14     9    1
    32     3     4    1
@<TRIPOS>MOLECULE
*****
 29 32 0 0 0
SMALL
GASTEIGER

@<TRIPOS>ATOM
      1 C          61.7128   89.4584   11.3392 C.2     1  UNL1        0.2252
      2 O          60.8107   90.6509   11.4577 O.2     1  UNL1       -0.2750
      3 N          63.2002   89.6313   11.4287 N.am    1  UNL1       -0.3003
      4 H          63.7923   88.8486   11.3509 H       1  UNL1        0.1497
      5 C          61.1276   88.0929   11.1312 C.3     1  UNL1        0.1154
      6 C          60.9293   88.3123    9.1457 C.3     1  UNL1        0.0335
      7 C          61.5835   87.2495    9.9778 C.3     1  UNL1        0.1377
      8 C          62.1424   86.3629   11.0509 C.3     1  UNL1        0.0613
      9 C          62.8071   85.1936   10.3867 C.3     1  UNL1        0.1290
     10 C          63.4291   84.0885    9.5857 C.3     1  UNL1        0.0305
     11 C          64.1205   82.9545   10.2828 C.3     1  UNL1        0.0025
     12 C          64.1898   82.9255   11.7809 C.3     1  UNL1        0.0002
     13 C          63.5677   84.0306   12.5819 C.3     1  UNL1        0.0025
     14 C          62.8764   85.1647   11.8848 C.3     1  UNL1        0.0305
     15 O          62.6589   85.3575    8.9031 O.3     1  UNL1       -0.2256
     16 O          61.9027   86.6281    8.6503 O.3     1  UNL1       -0.2251
     17 C          63.7853   90.9967   11.6367 C.3     1  UNL1        0.1176
     18 C          64.3855   91.3615   12.9620 C.ar    1  UNL1        0.0108
     19 C          63.7822   90.8329   14.2296 C.ar    1  UNL1       -0.0014
     20 C          64.3824   91.1977   15.5549 C.ar    1  UNL1       -0.0002
     21 C          65.5859   92.0912   15.6128 C.ar    1  UNL1        0.0012
     22 C          66.1892   92.6198   14.3454 C.ar    1  UNL1        0.0143
     23 C          65.5890   92.2550   13.0199 C.ar    1  UNL1        0.0454
     24 N          66.1922   92.7836   11.7525 N.pl3   1  UNL1       -0.3077
     25 C          67.3041   92.0331   11.0810 C.3     1  UNL1        0.0908
     26 C          67.9074   92.5618    9.8135 C.3     1  UNL1        0.0215
     27 C          67.3989   93.8409    9.2174 C.3     1  UNL1        0.0035
     28 C          66.2870   94.5913    9.8888 C.3     1  UNL1        0.0215
     29 C          65.6837   94.0627   11.1563 C.3     1  UNL1        0.0908
@<TRIPOS>BOND
     1     6     7    1
     2     7     5    1
     3     5     1    1
     4     1     2    2
     5     1     3   am
     6     3    17    1
     7    17    18    1
     8    18    19   ar
     9    19    20   ar
    10    20    21   ar
    11    21    22   ar
    12    22    23   ar
    13    23    24    1
    14    24    25    1
    15    25    26    1
    16    26    27    1
    17    27    28    1
    18    28    29    1
    19     7     8    1
    20     8     9    1
    21     9    10    1
    22    10    11    1
    23    11    12    1
    24    12    13    1
    25    13    14    1
    26     9    15    1
    27    15    16    1
    28    16     7    1
    29    23    18   ar
    30    29    24    1
    31    14     9    1
    32     3     4    1
@<TRIPOS>MOLECULE
*****
 29 32 0 0 0
SMALL
GASTEIGER

@<TRIPOS>ATOM
      1 C          63.2618   90.3405   12.1124 C.2     1  UNL1        0.2252
      2 O          63.2917   89.4687   13.3326 O.2     1  UNL1       -0.2750
      3 N          62.7445   89.7959   10.8140 N.am    1  UNL1       -0.3003
      4 H          62.7249   90.3681   10.0131 H       1  UNL1        0.1497
      5 C          63.7494   91.7570   12.1905 C.3     1  UNL1        0.1154
      6 C          64.7148   92.0285   10.4516 C.3     1  UNL1        0.0335
      7 C          65.1810   92.0757   11.8765 C.3     1  UNL1        0.1377
      8 C          65.3480   92.0562   13.3670 C.3     1  UNL1        0.0613
      9 C          66.7855   92.3531   13.6764 C.3     1  UNL1        0.1290
     10 C          68.2454   92.6605   13.8307 C.3     1  UNL1        0.0305
     11 C          68.8545   92.7404   15.1991 C.3     1  UNL1        0.0025
     12 C          68.0035   92.5129   16.4133 C.3     1  UNL1        0.0002
     13 C          66.5435   92.2054   16.2590 C.3     1  UNL1        0.0025
     14 C          65.9345   92.1255   14.8905 C.3     1  UNL1        0.0305
     15 O          67.5069   92.5560   12.3770 O.3     1  UNL1       -0.2256
     16 O          66.5153   92.3846   11.2645 O.3     1  UNL1       -0.2251
     17 C          62.2570   88.3795   10.7359 C.3     1  UNL1        0.1176
     18 C          61.3084   87.9717    9.6478 C.ar    1  UNL1        0.0108
     19 C          60.4461   89.0013    8.9798 C.ar    1  UNL1       -0.0014
     20 C          59.4975   88.5935    7.8917 C.ar    1  UNL1       -0.0002
     21 C          59.4114   87.1561    7.4716 C.ar    1  UNL1        0.0012
     22 C          60.2737   86.1265    8.1396 C.ar    1  UNL1        0.0143
     23 C          61.2223   86.5343    9.2278 C.ar    1  UNL1        0.0454
     24 N          62.0846   85.5048    9.8958 N.pl3   1  UNL1       -0.3077
     25 C          61.9407   85.2456   11.3663 C.3     1  UNL1        0.0908
     26 C          62.8031   84.2160   12.0343 C.3     1  UNL1        0.0215
     27 C          63.8093   83.4455   11.2319 C.3     1  UNL1        0.0035
     28 C          63.9531   83.7046    9.7615 C.3     1  UNL1        0.0215
     29 C          63.0908   84.7342    9.0934 C.3     1  UNL1        0.0908
@<TRIPOS>BOND
     1     6     7    1
     2     7     5    1
     3     5     1    1
     4     1     2    2
     5     1     3   am
     6     3    17    1
     7    17    18    1
     8    18    19   ar
     9    19    20   ar
    10    20    21   ar
    11    21    22   ar
    12    22    23   ar
    13    23    24    1
    14    24    25    1
    15    25    26    1
    16    26    27    1
    17    27    28    1
    18    28    29    1
    19     7     8    1
    20     8     9    1
    21     9    10    1
    22    10    11    1
    23    11    12    1
    24    12    13    1
    25    13    14    1
    26     9    15    1
    27    15    16    1
    28    16     7    1
    29    23    18   ar
    30    29    24    1
    31    14     9    1
    32     3     4    1
@<TRIPOS>MOLECULE
*****
 29 32 0 0 0
SMALL
GASTEIGER

@<TRIPOS>ATOM
      1 C          63.6112   87.0356   15.7821 C.2     1  UNL1        0.2252
      2 O          63.1292   87.8041   16.9765 O.2     1  UNL1       -0.2750
      3 N          64.0632   87.7663   14.5525 N.am    1  UNL1       -0.3003
      4 H          64.3796   87.2619   13.7684 H       1  UNL1        0.1497
      5 C          63.6413   85.5362   15.8170 C.3     1  UNL1        0.1154
      6 C          65.3984   85.8714   14.9060 C.3     1  UNL1        0.0335
      7 C          64.3842   84.7762   14.7586 C.3     1  UNL1        0.1377
      8 C          63.2147   83.8399   14.8324 C.3     1  UNL1        0.0613
      9 C          63.4467   82.7300   13.8503 C.3     1  UNL1        0.1290
     10 C          63.8139   81.6915   12.8322 C.3     1  UNL1        0.0305
     11 C          62.8945   80.5344   12.5759 C.3     1  UNL1        0.0025
     12 C          61.6078   80.4158   13.3378 C.3     1  UNL1        0.0002
     13 C          61.2406   81.4543   14.3559 C.3     1  UNL1        0.0025
     14 C          62.1600   82.6114   14.6122 C.3     1  UNL1        0.0305
     15 O          64.7597   82.9804   13.1696 O.3     1  UNL1       -0.2256
     16 O          65.3391   84.2451   13.7309 O.3     1  UNL1       -0.2251
     17 C          64.0331   89.2656   14.5175 C.3     1  UNL1        0.1176
     18 C          63.8969   89.9826   13.2070 C.ar    1  UNL1        0.0108
     19 C          62.9202   89.4902   12.1806 C.ar    1  UNL1       -0.0014
     20 C          62.7840   90.2073   10.8702 C.ar    1  UNL1       -0.0002
     21 C          63.6246   91.4167   10.5861 C.ar    1  UNL1        0.0012
     22 C          64.6012   91.9091   11.6125 C.ar    1  UNL1        0.0143
     23 C          64.7374   91.1921   12.9230 C.ar    1  UNL1        0.0454
     24 N          65.7141   91.6845   13.9494 N.pl3   1  UNL1       -0.3077
     25 C          65.2356   92.0605   15.3205 C.3     1  UNL1        0.0908
     26 C          66.2123   92.5530   16.3469 C.3     1  UNL1        0.0215
     27 C          67.6676   92.6694   16.0023 C.3     1  UNL1        0.0035
     28 C          68.1460   92.2933   14.6313 C.3     1  UNL1        0.0215
     29 C          67.1694   91.8009   13.6049 C.3     1  UNL1        0.0908
@<TRIPOS>BOND
     1     6     7    1
     2     7     5    1
     3     5     1    1
     4     1     2    2
     5     1     3   am
     6     3    17    1
     7    17    18    1
     8    18    19   ar
     9    19    20   ar
    10    20    21   ar
    11    21    22   ar
    12    22    23   ar
    13    23    24    1
    14    24    25    1
    15    25    26    1
    16    26    27    1
    17    27    28    1
    18    28    29    1
    19     7     8    1
    20     8     9    1
    21     9    10    1
    22    10    11    1
    23    11    12    1
    24    12    13    1
    25    13    14    1
    26     9    15    1
    27    15    16    1
    28    16     7    1
    29    23    18   ar
    30    29    24    1
    31    14     9    1
    32     3     4    1
