@<TRIPOS>MOLECULE
*****
 36 39 0 0 0
SMALL
GASTEIGER

@<TRIPOS>ATOM
      1 N          63.2576   90.3819   12.0984 N.am    1  UNL1       -0.2781
      2 C          62.1732   90.9312   11.2196 C.3     1  UNL1        0.0957
      3 C          61.2951   89.7902   10.7987 C.3     1  UNL1        0.0504
      4 C          61.8368   88.5357   11.4174 C.3     1  UNL1        0.1495
      5 C          63.0497   88.9014   12.2206 C.2     1  UNL1        0.2435
      6 O          63.9046   87.9531   13.0079 O.2     1  UNL1       -0.2731
      7 C          66.5554   92.7581   14.0292 C.3     1  UNL1        0.0558
      8 C          66.0816   93.1148   12.6514 C.3     1  UNL1        0.0175
      9 C          64.9823   92.3228   12.0078 C.3     1  UNL1        0.0229
     10 C          64.3568   91.1740   12.7420 C.3     1  UNL1        0.0933
     11 C          64.8306   90.8173   14.1198 C.3     1  UNL1        0.0910
     12 C          65.9299   91.6094   14.7634 C.3     1  UNL1        0.0370
     13 N          64.2052   89.6685   14.8540 N.am    1  UNL1       -0.3043
     14 C          63.4789   89.9092   16.1442 C.2     1  UNL1        0.2230
     15 C          62.8535   88.7605   16.8784 C.3     1  UNL1        0.0946
     16 O          63.3781   91.2987   16.7003 O.2     1  UNL1       -0.2751
     17 H          64.2713   88.7566   14.4891 H       1  UNL1        0.1494
     18 C          68.7523   92.8457   15.4134 C.3     1  UNL1        0.0858
     19 N          67.6547   93.5503   14.6727 N.3     1  UNL1       -0.2973
     20 H          68.0999   94.0918   13.9318 H       1  UNL1        0.1232
     21 N          61.2659   87.1575   11.2604 N.pl3   1  UNL1       -0.3122
     22 H          60.5031   86.8746   11.8147 H       1  UNL1        0.1486
     23 C          61.8574   86.2104   10.2588 C.ar    1  UNL1        0.1319
     24 N          61.6001   86.4102    8.7946 N.ar    1  UNL1       -0.2092
     25 C          62.1916   85.4631    7.7931 C.ar    1  UNL1        0.2000
     26 N          63.0403   84.3160    8.2558 N.ar    1  UNL1       -0.2239
     27 C          63.2976   84.1162    9.7200 C.ar    1  UNL1        0.0857
     28 C          64.1463   82.9692   10.1827 C.ar    1  UNL1        0.0192
     29 C          64.4035   82.7693   11.6468 C.ar    1  UNL1        0.0054
     30 C          63.8120   83.7165   12.6484 C.ar    1  UNL1        0.0716
     31 C          62.9633   84.8635   12.1857 C.ar    1  UNL1        0.0081
     32 C          62.7061   85.0633   10.7215 C.ar    1  UNL1        0.0491
     33 C          64.0693   83.5167   14.1126 C.3     1  UNL1        0.4186
     34 F          64.3265   83.3168   15.5768 F       1  UNL1       -0.1659
     35 F          65.3458   84.2955   13.9946 F       1  UNL1       -0.1659
     36 F          62.7928   82.7378   14.2305 F       1  UNL1       -0.1659
@<TRIPOS>BOND
     1    18    19    1
     2     7    19    1
     3     7     8    1
     4     8     9    1
     5     9    10    1
     6    10     1    1
     7     1     2    1
     8     2     3    1
     9     3     4    1
    10     4    21    1
    11    21    23    1
    12    23    24   ar
    13    24    25   ar
    14    25    26   ar
    15    26    27   ar
    16    27    28   ar
    17    28    29   ar
    18    29    30   ar
    19    30    33    1
    20    33    34    1
    21    33    35    1
    22    33    36    1
    23    30    31   ar
    24    31    32   ar
    25     4     5    1
    26     5     6    2
    27    10    11    1
    28    11    13    1
    29    13    14   am
    30    14    15    1
    31    14    16    2
    32    11    12    1
    33    12     7    1
    34     5     1   am
    35    32    23   ar
    36    32    27   ar
    37    19    20    1
    38    21    22    1
    39    13    17    1
@<TRIPOS>MOLECULE
*****
 36 39 0 0 0
SMALL
GASTEIGER

@<TRIPOS>ATOM
      1 N          63.9607   90.5971   12.5371 N.am    1  UNL1       -0.2781
      2 C          63.4723   91.0284   11.1860 C.3     1  UNL1        0.0957
      3 C          62.6036   89.9359   10.6367 C.3     1  UNL1        0.0504
      4 C          62.5550   88.8294   11.6483 C.3     1  UNL1        0.1495
      5 C          63.3938   89.2381   12.8228 C.2     1  UNL1        0.2435
      6 O          63.6250   88.4296   14.0650 O.2     1  UNL1       -0.2731
      7 C          66.6537   92.9646   15.2561 C.3     1  UNL1        0.0558
      8 C          65.5561   92.1221   15.8354 C.3     1  UNL1        0.0175
      9 C          64.6585   91.3329   14.9291 C.3     1  UNL1        0.0229
     10 C          64.8584   91.3863   13.4435 C.3     1  UNL1        0.0933
     11 C          65.9559   92.2288   12.8641 C.3     1  UNL1        0.0910
     12 C          66.8536   93.0179   13.7705 C.3     1  UNL1        0.0370
     13 N          66.1558   92.2821   11.3785 N.am    1  UNL1       -0.3043
     14 C          67.5325   92.1357   10.8012 C.2     1  UNL1        0.2230
     15 C          67.7324   92.1890    9.3156 C.3     1  UNL1        0.0946
     16 O          68.7094   91.9359   11.7096 O.2     1  UNL1       -0.2751
     17 H          65.3834   92.4132   10.7823 H       1  UNL1        0.1494
     18 C          69.0277   93.7998   15.9017 C.3     1  UNL1        0.0858
     19 N          67.5513   93.7537   16.1626 N.3     1  UNL1       -0.2973
     20 H          67.2182   94.7175   16.1406 H       1  UNL1        0.1232
     21 N          61.8003   87.5406   11.5096 N.pl3   1  UNL1       -0.3122
     22 H          61.0367   87.3511   12.1015 H       1  UNL1        0.1486
     23 C          62.2090   86.5403   10.4692 C.ar    1  UNL1        0.1319
     24 N          61.9099   86.7985    9.0222 N.ar    1  UNL1       -0.2092
     25 C          62.3186   85.7982    7.9818 C.ar    1  UNL1        0.2000
     26 N          63.0263   84.5397    8.3885 N.ar    1  UNL1       -0.2239
     27 C          63.3253   84.2815    9.8355 C.ar    1  UNL1        0.0857
     28 C          64.0330   83.0230   10.2421 C.ar    1  UNL1        0.0192
     29 C          64.3321   82.7648   11.6891 C.ar    1  UNL1        0.0054
     30 C          63.9234   83.7651   12.7296 C.ar    1  UNL1        0.0716
     31 C          63.2157   85.0236   12.3229 C.ar    1  UNL1        0.0081
     32 C          62.9167   85.2818   10.8758 C.ar    1  UNL1        0.0491
     33 C          64.2224   83.5069   14.1766 C.3     1  UNL1        0.4186
     34 F          64.5215   83.2487   15.6237 F       1  UNL1       -0.1659
     35 F          63.7692   82.0860   14.0167 F       1  UNL1       -0.1659
     36 F          64.6756   84.9277   14.3365 F       1  UNL1       -0.1659
@<TRIPOS>BOND
     1    18    19    1
     2     7    19    1
     3     7     8    1
     4     8     9    1
     5     9    10    1
     6    10     1    1
     7     1     2    1
     8     2     3    1
     9     3     4    1
    10     4    21    1
    11    21    23    1
    12    23    24   ar
    13    24    25   ar
    14    25    26   ar
    15    26    27   ar
    16    27    28   ar
    17    28    29   ar
    18    29    30   ar
    19    30    33    1
    20    33    34    1
    21    33    35    1
    22    33    36    1
    23    30    31   ar
    24    31    32   ar
    25     4     5    1
    26     5     6    2
    27    10    11    1
    28    11    13    1
    29    13    14   am
    30    14    15    1
    31    14    16    2
    32    11    12    1
    33    12     7    1
    34     5     1   am
    35    32    23   ar
    36    32    27   ar
    37    19    20    1
    38    21    22    1
    39    13    17    1
@<TRIPOS>MOLECULE
*****
 36 39 0 0 0
SMALL
GASTEIGER

@<TRIPOS>ATOM
      1 N          62.6716   89.7775   11.0217 N.am    1  UNL1       -0.2781
      2 C          61.5331   89.8440   10.0473 C.3     1  UNL1        0.0957
      3 C          60.8633   88.5020   10.0248 C.3     1  UNL1        0.0504
      4 C          61.5877   87.6062   10.9854 C.3     1  UNL1        0.1495
      5 C          62.7053   88.3945   11.6015 C.2     1  UNL1        0.2435
      6 O          63.6847   87.8886   12.6187 O.2     1  UNL1       -0.2731
      7 C          65.4908   93.1372   12.0288 C.3     1  UNL1        0.0558
      8 C          65.1041   92.8849   10.6016 C.3     1  UNL1        0.0175
      9 C          64.1643   91.7650   10.2659 C.3     1  UNL1        0.0229
     10 C          63.6113   90.8974   11.3574 C.3     1  UNL1        0.0933
     11 C          63.9980   91.1497   12.7846 C.3     1  UNL1        0.0910
     12 C          64.9378   92.2696   13.1203 C.3     1  UNL1        0.0370
     13 N          63.4450   90.2820   13.8761 N.am    1  UNL1       -0.3043
     14 C          63.7857   90.5699   15.3082 C.2     1  UNL1        0.2230
     15 C          63.2327   89.7023   16.3997 C.3     1  UNL1        0.0946
     16 O          64.6795   91.7254   15.6489 O.2     1  UNL1       -0.2751
     17 H          62.8584   89.5237   13.6525 H       1  UNL1        0.1494
     18 C          66.4493   95.4984   11.5224 C.3     1  UNL1        0.0858
     19 N          66.4306   94.2571   12.3644 N.3     1  UNL1       -0.2973
     20 H          66.2111   94.5504   13.3164 H       1  UNL1        0.1232
     21 N          61.2533   86.1736   11.2784 N.pl3   1  UNL1       -0.3122
     22 H          60.3313   85.9217   11.5142 H       1  UNL1        0.1486
     23 C          62.3237   85.1248   11.2121 C.ar    1  UNL1        0.1319
     24 N          62.7498   84.5709    9.8848 N.ar    1  UNL1       -0.2092
     25 C          63.8202   83.5222    9.8185 C.ar    1  UNL1        0.2000
     26 N          64.4645   83.0275   11.0795 N.ar    1  UNL1       -0.2239
     27 C          64.0385   83.5814   12.4067 C.ar    1  UNL1        0.0857
     28 C          64.6828   83.0866   13.6677 C.ar    1  UNL1        0.0192
     29 C          64.2568   83.6405   14.9949 C.ar    1  UNL1        0.0054
     30 C          63.1863   84.6893   15.0613 C.ar    1  UNL1        0.0716
     31 C          62.5420   85.1840   13.8003 C.ar    1  UNL1        0.0081
     32 C          62.9681   84.6301   12.4730 C.ar    1  UNL1        0.0491
     33 C          62.7603   85.2432   16.3885 C.3     1  UNL1        0.4186
     34 F          62.3341   85.7971   17.7158 F       1  UNL1       -0.1659
     35 F          64.1936   85.5203   16.7330 F       1  UNL1       -0.1659
     36 F          61.3269   84.9660   16.0441 F       1  UNL1       -0.1659
@<TRIPOS>BOND
     1    18    19    1
     2     7    19    1
     3     7     8    1
     4     8     9    1
     5     9    10    1
     6    10     1    1
     7     1     2    1
     8     2     3    1
     9     3     4    1
    10     4    21    1
    11    21    23    1
    12    23    24   ar
    13    24    25   ar
    14    25    26   ar
    15    26    27   ar
    16    27    28   ar
    17    28    29   ar
    18    29    30   ar
    19    30    33    1
    20    33    34    1
    21    33    35    1
    22    33    36    1
    23    30    31   ar
    24    31    32   ar
    25     4     5    1
    26     5     6    2
    27    10    11    1
    28    11    13    1
    29    13    14   am
    30    14    15    1
    31    14    16    2
    32    11    12    1
    33    12     7    1
    34     5     1   am
    35    32    23   ar
    36    32    27   ar
    37    19    20    1
    38    21    22    1
    39    13    17    1
@<TRIPOS>MOLECULE
*****
 36 39 0 0 0
SMALL
GASTEIGER

@<TRIPOS>ATOM
      1 N          64.5139   91.2609   12.3687 N.am    1  UNL1       -0.2781
      2 C          64.8863   90.5068   13.6108 C.3     1  UNL1        0.0957
      3 C          63.9686   89.3262   13.7288 C.3     1  UNL1        0.0504
      4 C          63.0291   89.3505   12.5598 C.3     1  UNL1        0.1495
      5 C          63.3661   90.5463   11.7192 C.2     1  UNL1        0.2435
      6 O          62.6764   90.9556   10.4516 O.2     1  UNL1       -0.2731
      7 C          66.4926   95.0090   10.8566 C.3     1  UNL1        0.0558
      8 C          65.7577   94.1124    9.9047 C.3     1  UNL1        0.0175
      9 C          65.0981   92.8631   10.4087 C.3     1  UNL1        0.0229
     10 C          65.1735   92.5103   11.8647 C.3     1  UNL1        0.0933
     11 C          65.9084   93.4068   12.8166 C.3     1  UNL1        0.0910
     12 C          66.5680   94.6561   12.3125 C.3     1  UNL1        0.0370
     13 N          65.9838   93.0540   14.2725 N.am    1  UNL1       -0.3043
     14 C          67.3111   92.7544   14.9039 C.2     1  UNL1        0.2230
     15 C          67.3865   92.4016   16.3598 C.3     1  UNL1        0.0946
     16 O          68.5630   92.8077   14.0793 O.2     1  UNL1       -0.2751
     17 H          65.1622   93.0190   14.8137 H       1  UNL1        0.1494
     18 C          67.2560   96.5087    8.8771 C.3     1  UNL1        0.0858
     19 N          67.1522   96.2583   10.3524 N.3     1  UNL1       -0.2973
     20 H          66.6365   97.0440   10.7488 H       1  UNL1        0.1232
     21 N          61.9432   88.3541   12.2804 N.pl3   1  UNL1       -0.3122
     22 H          61.1509   88.3131   12.8633 H       1  UNL1        0.1486
     23 C          62.0645   87.4202   11.1129 C.ar    1  UNL1        0.1319
     24 N          61.6041   87.8554    9.7533 N.ar    1  UNL1       -0.2092
     25 C          61.7255   86.9215    8.5858 C.ar    1  UNL1        0.2000
     26 N          62.3073   85.5523    8.7779 N.ar    1  UNL1       -0.2239
     27 C          62.7678   85.1171   10.1375 C.ar    1  UNL1        0.0857
     28 C          63.3496   83.7480   10.3297 C.ar    1  UNL1        0.0192
     29 C          63.8101   83.3128   11.6892 C.ar    1  UNL1        0.0054
     30 C          63.6887   84.2467   12.8568 C.ar    1  UNL1        0.0716
     31 C          63.1069   85.6159   12.6647 C.ar    1  UNL1        0.0081
     32 C          62.6464   86.0510   11.3050 C.ar    1  UNL1        0.0491
     33 C          64.1492   83.8115   14.2164 C.3     1  UNL1        0.4186
     34 F          64.6097   83.3763   15.5760 F       1  UNL1       -0.1659
     35 F          63.2680   82.6009   14.1273 F       1  UNL1       -0.1659
     36 F          65.0303   85.0221   14.3055 F       1  UNL1       -0.1659
@<TRIPOS>BOND
     1    18    19    1
     2     7    19    1
     3     7     8    1
     4     8     9    1
     5     9    10    1
     6    10     1    1
     7     1     2    1
     8     2     3    1
     9     3     4    1
    10     4    21    1
    11    21    23    1
    12    23    24   ar
    13    24    25   ar
    14    25    26   ar
    15    26    27   ar
    16    27    28   ar
    17    28    29   ar
    18    29    30   ar
    19    30    33    1
    20    33    34    1
    21    33    35    1
    22    33    36    1
    23    30    31   ar
    24    31    32   ar
    25     4     5    1
    26     5     6    2
    27    10    11    1
    28    11    13    1
    29    13    14   am
    30    14    15    1
    31    14    16    2
    32    11    12    1
    33    12     7    1
    34     5     1   am
    35    32    23   ar
    36    32    27   ar
    37    19    20    1
    38    21    22    1
    39    13    17    1
@<TRIPOS>MOLECULE
*****
 36 39 0 0 0
SMALL
GASTEIGER

@<TRIPOS>ATOM
      1 N          64.5751   91.5947   12.2780 N.am    1  UNL1       -0.2781
      2 C          64.5218   92.0187   10.8402 C.3     1  UNL1        0.0957
      3 C          63.2595   91.4719   10.2421 C.3     1  UNL1        0.0504
      4 C          62.5327   90.7099   11.3103 C.3     1  UNL1        0.1495
      5 C          63.3457   90.7858   12.5685 C.2     1  UNL1        0.2435
      6 O          62.9916   90.1622   13.8860 O.2     1  UNL1       -0.2731
      7 C          67.8481   92.5767   15.2059 C.3     1  UNL1        0.0558
      8 C          66.4858   92.1949   15.7041 C.3     1  UNL1        0.0175
      9 C          65.3948   91.8675   14.7282 C.3     1  UNL1        0.0229
     10 C          65.6661   91.9220   13.2540 C.3     1  UNL1        0.0933
     11 C          67.0284   92.3039   12.7557 C.3     1  UNL1        0.0910
     12 C          68.1194   92.6313   13.7316 C.3     1  UNL1        0.0370
     13 N          67.2997   92.3584   11.2814 N.am    1  UNL1       -0.3043
     14 C          67.2404   93.6700   10.5559 C.2     1  UNL1        0.2230
     15 C          67.5118   93.7245    9.0817 C.3     1  UNL1        0.0946
     16 O          66.9099   94.9270   11.3046 O.2     1  UNL1       -0.2751
     17 H          67.5167   91.5334   10.7900 H       1  UNL1        0.1494
     18 C          69.5332   94.2811   16.2088 C.3     1  UNL1        0.0858
     19 N          68.9391   92.9041   16.1819 N.3     1  UNL1       -0.2973
     20 H          68.5634   92.7273   17.1136 H       1  UNL1        0.1232
     21 N          61.2228   89.9971   11.1486 N.pl3   1  UNL1       -0.3122
     22 H          60.3777   90.4830   11.2865 H       1  UNL1        0.1486
     23 C          61.2005   88.5441   10.7767 C.ar    1  UNL1        0.1319
     24 N          61.7584   87.5199   11.7199 N.ar    1  UNL1       -0.2092
     25 C          61.7361   86.0669   11.3481 C.ar    1  UNL1        0.2000
     26 N          61.1558   85.6381   10.0330 N.ar    1  UNL1       -0.2239
     27 C          60.5979   86.6623    9.0897 C.ar    1  UNL1        0.0857
     28 C          60.0177   86.2336    7.7746 C.ar    1  UNL1        0.0192
     29 C          59.4598   87.2578    6.8314 C.ar    1  UNL1        0.0054
     30 C          59.4821   88.7108    7.2033 C.ar    1  UNL1        0.0716
     31 C          60.0623   89.1396    8.5184 C.ar    1  UNL1        0.0081
     32 C          60.6202   88.1153    9.4616 C.ar    1  UNL1        0.0491
     33 C          58.9241   89.7350    6.2601 C.3     1  UNL1        0.4186
     34 F          58.3662   90.7593    5.3168 F       1  UNL1       -0.1659
     35 F          57.5340   89.3821    6.6991 F       1  UNL1       -0.1659
     36 F          60.3143   90.0880    5.8210 F       1  UNL1       -0.1659
@<TRIPOS>BOND
     1    18    19    1
     2     7    19    1
     3     7     8    1
     4     8     9    1
     5     9    10    1
     6    10     1    1
     7     1     2    1
     8     2     3    1
     9     3     4    1
    10     4    21    1
    11    21    23    1
    12    23    24   ar
    13    24    25   ar
    14    25    26   ar
    15    26    27   ar
    16    27    28   ar
    17    28    29   ar
    18    29    30   ar
    19    30    33    1
    20    33    34    1
    21    33    35    1
    22    33    36    1
    23    30    31   ar
    24    31    32   ar
    25     4     5    1
    26     5     6    2
    27    10    11    1
    28    11    13    1
    29    13    14   am
    30    14    15    1
    31    14    16    2
    32    11    12    1
    33    12     7    1
    34     5     1   am
    35    32    23   ar
    36    32    27   ar
    37    19    20    1
    38    21    22    1
    39    13    17    1
@<TRIPOS>MOLECULE
*****
 36 39 0 0 0
SMALL
GASTEIGER

@<TRIPOS>ATOM
      1 N          62.2616   86.0693   11.9915 N.am    1  UNL1       -0.2781
      2 C          61.1924   86.4620   11.0155 C.3     1  UNL1        0.0957
      3 C          61.2461   87.9511   10.8435 C.3     1  UNL1        0.0504
      4 C          62.3485   88.4788   11.7131 C.3     1  UNL1        0.1495
      5 C          62.9761   87.3157   12.4226 C.2     1  UNL1        0.2435
      6 O          64.1178   87.3866   13.3930 O.2     1  UNL1       -0.2731
      7 C          63.1668   81.8863   13.3820 C.3     1  UNL1        0.0558
      8 C          63.1748   82.2079   11.9169 C.3     1  UNL1        0.0175
      9 C          62.8731   83.6022   11.4534 C.3     1  UNL1        0.0229
     10 C          62.5633   84.6750   12.4550 C.3     1  UNL1        0.0933
     11 C          62.5553   84.3534   13.9202 C.3     1  UNL1        0.0910
     12 C          62.8570   82.9591   14.3837 C.3     1  UNL1        0.0370
     13 N          62.2456   85.4261   14.9218 N.am    1  UNL1       -0.3043
     14 C          63.2503   85.7783   15.9785 C.2     1  UNL1        0.2230
     15 C          62.9405   86.8511   16.9801 C.3     1  UNL1        0.0946
     16 O          64.5647   85.0578   16.0335 O.2     1  UNL1       -0.2751
     17 H          61.3829   85.8990   14.8856 H       1  UNL1        0.1494
     18 C          62.4863   79.3875   13.5897 C.3     1  UNL1        0.0858
     19 N          63.4685   80.4920   13.8454 N.3     1  UNL1       -0.2973
     20 H          64.3438   80.2166   13.3999 H       1  UNL1        0.1232
     21 N          62.7524   89.9169   11.8493 N.pl3   1  UNL1       -0.3122
     22 H          62.6278   90.5368   11.0947 H       1  UNL1        0.1486
     23 C          63.3463   90.4106   13.1353 C.ar    1  UNL1        0.1319
     24 N          62.8311   89.8946   14.4461 N.ar    1  UNL1       -0.2092
     25 C          63.4249   90.3883   15.7320 C.ar    1  UNL1        0.2000
     26 N          64.5339   91.3980   15.7071 N.ar    1  UNL1       -0.2239
     27 C          65.0490   91.9141   14.3963 C.ar    1  UNL1        0.0857
     28 C          66.1580   92.9238   14.3714 C.ar    1  UNL1        0.0192
     29 C          66.6731   93.4399   13.0606 C.ar    1  UNL1        0.0054
     30 C          66.0793   92.9462   11.7746 C.ar    1  UNL1        0.0716
     31 C          64.9703   91.9364   11.7995 C.ar    1  UNL1        0.0081
     32 C          64.4552   91.4204   13.1104 C.ar    1  UNL1        0.0491
     33 C          66.5944   93.4623   10.4638 C.3     1  UNL1        0.4186
     34 F          67.1096   93.9783    9.1529 F       1  UNL1       -0.1659
     35 F          65.9962   94.8060   10.7578 F       1  UNL1       -0.1659
     36 F          67.1926   92.1185   10.1699 F       1  UNL1       -0.1659
@<TRIPOS>BOND
     1    18    19    1
     2     7    19    1
     3     7     8    1
     4     8     9    1
     5     9    10    1
     6    10     1    1
     7     1     2    1
     8     2     3    1
     9     3     4    1
    10     4    21    1
    11    21    23    1
    12    23    24   ar
    13    24    25   ar
    14    25    26   ar
    15    26    27   ar
    16    27    28   ar
    17    28    29   ar
    18    29    30   ar
    19    30    33    1
    20    33    34    1
    21    33    35    1
    22    33    36    1
    23    30    31   ar
    24    31    32   ar
    25     4     5    1
    26     5     6    2
    27    10    11    1
    28    11    13    1
    29    13    14   am
    30    14    15    1
    31    14    16    2
    32    11    12    1
    33    12     7    1
    34     5     1   am
    35    32    23   ar
    36    32    27   ar
    37    19    20    1
    38    21    22    1
    39    13    17    1
@<TRIPOS>MOLECULE
*****
 36 39 0 0 0
SMALL
GASTEIGER

@<TRIPOS>ATOM
      1 N          64.6748   91.5980   12.3529 N.am    1  UNL1       -0.2781
      2 C          65.0914   90.8546   13.5873 C.3     1  UNL1        0.0957
      3 C          64.1505   89.7013   13.7734 C.3     1  UNL1        0.0504
      4 C          63.1525   89.7319   12.6541 C.3     1  UNL1        0.1495
      5 C          63.4765   90.9042   11.7761 C.2     1  UNL1        0.2435
      6 O          62.7329   91.3112   10.5387 O.2     1  UNL1       -0.2731
      7 C          66.6697   95.2659   10.6746 C.3     1  UNL1        0.0558
      8 C          65.9867   94.2968    9.7557 C.3     1  UNL1        0.0175
      9 C          65.3217   93.0742   10.3152 C.3     1  UNL1        0.0229
     10 C          65.3398   92.8207   11.7935 C.3     1  UNL1        0.0933
     11 C          66.0228   93.7898   12.7123 C.3     1  UNL1        0.0910
     12 C          66.6878   95.0124   12.1529 C.3     1  UNL1        0.0370
     13 N          66.0409   93.5363   14.1906 N.am    1  UNL1       -0.3043
     14 C          67.2802   93.0015   14.8448 C.2     1  UNL1        0.2230
     15 C          67.2983   92.7480   16.3231 C.3     1  UNL1        0.0946
     16 O          68.5016   92.7202   14.0207 O.2     1  UNL1       -0.2751
     17 H          65.2393   93.7210   14.7315 H       1  UNL1        0.1494
     18 C          67.2917   96.7570    8.6399 C.3     1  UNL1        0.0858
     19 N          67.3347   96.4885   10.1150 N.3     1  UNL1       -0.2973
     20 H          66.9059   97.2927   10.5732 H       1  UNL1        0.1232
     21 N          62.0279   88.7608   12.4487 N.pl3   1  UNL1       -0.3122
     22 H          61.1029   89.0280   12.6544 H       1  UNL1        0.1486
     23 C          62.3125   87.3824   11.9298 C.ar    1  UNL1        0.1319
     24 N          63.1283   86.4265   12.7487 N.ar    1  UNL1       -0.2092
     25 C          63.4130   85.0482   12.2298 C.ar    1  UNL1        0.2000
     26 N          62.8817   84.6258   10.8921 N.ar    1  UNL1       -0.2239
     27 C          62.0659   85.5817   10.0733 C.ar    1  UNL1        0.0857
     28 C          61.5347   85.1594    8.7356 C.ar    1  UNL1        0.0192
     29 C          60.7188   86.1153    7.9168 C.ar    1  UNL1        0.0054
     30 C          60.4342   87.4937    8.4356 C.ar    1  UNL1        0.0716
     31 C          60.9654   87.9161    9.7733 C.ar    1  UNL1        0.0081
     32 C          61.7813   86.9600   10.5921 C.ar    1  UNL1        0.0491
     33 C          59.6184   88.4497    7.6168 C.3     1  UNL1        0.4186
     34 F          58.8024   89.4056    6.7979 F       1  UNL1       -0.1659
     35 F          60.3460   89.6041    8.2395 F       1  UNL1       -0.1659
     36 F          58.8907   87.2952    6.9940 F       1  UNL1       -0.1659
@<TRIPOS>BOND
     1    18    19    1
     2     7    19    1
     3     7     8    1
     4     8     9    1
     5     9    10    1
     6    10     1    1
     7     1     2    1
     8     2     3    1
     9     3     4    1
    10     4    21    1
    11    21    23    1
    12    23    24   ar
    13    24    25   ar
    14    25    26   ar
    15    26    27   ar
    16    27    28   ar
    17    28    29   ar
    18    29    30   ar
    19    30    33    1
    20    33    34    1
    21    33    35    1
    22    33    36    1
    23    30    31   ar
    24    31    32   ar
    25     4     5    1
    26     5     6    2
    27    10    11    1
    28    11    13    1
    29    13    14   am
    30    14    15    1
    31    14    16    2
    32    11    12    1
    33    12     7    1
    34     5     1   am
    35    32    23   ar
    36    32    27   ar
    37    19    20    1
    38    21    22    1
    39    13    17    1
@<TRIPOS>MOLECULE
*****
 36 39 0 0 0
SMALL
GASTEIGER

@<TRIPOS>ATOM
      1 N          64.9159   91.3915   12.9346 N.am    1  UNL1       -0.2781
      2 C          65.3863   90.8858   14.2661 C.3     1  UNL1        0.0957
      3 C          64.6589   89.6072   14.5596 C.3     1  UNL1        0.0504
      4 C          63.7389   89.3228   13.4095 C.3     1  UNL1        0.1495
      5 C          63.8977   90.4255   12.4052 C.2     1  UNL1        0.2435
      6 O          63.1668   90.5419   11.1005 O.2     1  UNL1       -0.2731
      7 C          66.3136   95.1473   10.8875 C.3     1  UNL1        0.0558
      8 C          65.5893   94.0919   10.1054 C.3     1  UNL1        0.0175
      9 C          65.1234   92.8400   10.7878 C.3     1  UNL1        0.0229
     10 C          65.3818   92.6434   12.2522 C.3     1  UNL1        0.0933
     11 C          66.1061   93.6988   13.0343 C.3     1  UNL1        0.0910
     12 C          66.5720   94.9507   12.3519 C.3     1  UNL1        0.0370
     13 N          66.3645   93.5023   14.4987 N.am    1  UNL1       -0.3043
     14 C          67.6751   92.9367   14.9598 C.2     1  UNL1        0.2230
     15 C          67.9335   92.7401   16.4242 C.3     1  UNL1        0.0946
     16 O          68.7273   92.5677   13.9564 O.2     1  UNL1       -0.2751
     17 H          65.6739   93.7444   15.1573 H       1  UNL1        0.1494
     18 C          67.3305   96.3332    8.8115 C.3     1  UNL1        0.0858
     19 N          66.7795   96.3992   10.2050 N.3     1  UNL1       -0.2973
     20 H          65.9811   97.0334   10.1763 H       1  UNL1        0.1232
     21 N          62.8212   88.1427   13.2855 N.pl3   1  UNL1       -0.3122
     22 H          61.8638   88.2808   13.1020 H       1  UNL1        0.1486
     23 C          63.3621   86.7523   13.4411 C.ar    1  UNL1        0.1319
     24 N          63.9935   86.3337   14.7358 N.ar    1  UNL1       -0.2092
     25 C          64.5344   84.9434   14.8913 C.ar    1  UNL1        0.2000
     26 N          64.4439   83.9716   13.7523 N.ar    1  UNL1       -0.2239
     27 C          63.8126   84.3902   12.4576 C.ar    1  UNL1        0.0857
     28 C          63.7221   83.4184   11.3186 C.ar    1  UNL1        0.0192
     29 C          63.0907   83.8370   10.0240 C.ar    1  UNL1        0.0054
     30 C          62.5498   85.2274    9.8683 C.ar    1  UNL1        0.0716
     31 C          62.6402   86.1992   11.0074 C.ar    1  UNL1        0.0081
     32 C          63.2717   85.7805   12.3021 C.ar    1  UNL1        0.0491
     33 C          61.9184   85.6460    8.5737 C.3     1  UNL1        0.4186
     34 F          61.2870   86.0646    7.2790 F       1  UNL1       -0.1659
     35 F          63.1798   85.2911    7.8438 F       1  UNL1       -0.1659
     36 F          60.6570   86.0009    9.3036 F       1  UNL1       -0.1659
@<TRIPOS>BOND
     1    18    19    1
     2     7    19    1
     3     7     8    1
     4     8     9    1
     5     9    10    1
     6    10     1    1
     7     1     2    1
     8     2     3    1
     9     3     4    1
    10     4    21    1
    11    21    23    1
    12    23    24   ar
    13    24    25   ar
    14    25    26   ar
    15    26    27   ar
    16    27    28   ar
    17    28    29   ar
    18    29    30   ar
    19    30    33    1
    20    33    34    1
    21    33    35    1
    22    33    36    1
    23    30    31   ar
    24    31    32   ar
    25     4     5    1
    26     5     6    2
    27    10    11    1
    28    11    13    1
    29    13    14   am
    30    14    15    1
    31    14    16    2
    32    11    12    1
    33    12     7    1
    34     5     1   am
    35    32    23   ar
    36    32    27   ar
    37    19    20    1
    38    21    22    1
    39    13    17    1
@<TRIPOS>MOLECULE
*****
 36 39 0 0 0
SMALL
GASTEIGER

@<TRIPOS>ATOM
      1 N          63.2659   85.4855   15.1354 N.am    1  UNL1       -0.2781
      2 C          62.9611   85.5956   16.6000 C.3     1  UNL1        0.0957
      3 C          63.1245   87.0318   17.0008 C.3     1  UNL1        0.0504
      4 C          63.5303   87.8094   15.7839 C.3     1  UNL1        0.1495
      5 C          63.6177   86.8537   14.6311 C.2     1  UNL1        0.2435
      6 O          63.9914   87.2046   13.2214 O.2     1  UNL1       -0.2731
      7 C          63.1461   81.7132   12.6848 C.3     1  UNL1        0.0558
      8 C          63.8289   81.7186   14.0204 C.3     1  UNL1        0.0175
      9 C          63.8688   82.9761   14.8373 C.3     1  UNL1        0.0229
     10 C          63.2260   84.2281   14.3185 C.3     1  UNL1        0.0933
     11 C          62.5432   84.2227   12.9829 C.3     1  UNL1        0.0910
     12 C          62.5032   82.9653   12.1661 C.3     1  UNL1        0.0370
     13 N          61.9003   85.4747   12.4642 N.am    1  UNL1       -0.3043
     14 C          62.0510   85.8525   11.0204 C.2     1  UNL1        0.2230
     15 C          61.4082   87.1045   10.5016 C.3     1  UNL1        0.0946
     16 O          62.8446   84.9782   10.0953 O.2     1  UNL1       -0.2751
     17 H          61.3795   86.0486   13.0714 H       1  UNL1        0.1494
     18 C          63.1128   80.5337   10.3701 C.3     1  UNL1        0.0858
     19 N          63.1062   80.4557   11.8681 N.3     1  UNL1       -0.2973
     20 H          63.9204   79.9036   12.1377 H       1  UNL1        0.1232
     21 N          63.8012   89.2837   15.7295 N.pl3   1  UNL1       -0.3122
     22 H          64.0258   89.7737   16.5534 H       1  UNL1        0.1486
     23 C          63.7298   90.0115   14.4198 C.ar    1  UNL1        0.1319
     24 N          62.5777   89.7710   13.4899 N.ar    1  UNL1       -0.2092
     25 C          62.5064   90.4988   12.1803 C.ar    1  UNL1        0.2000
     26 N          63.5872   91.4672   11.8006 N.ar    1  UNL1       -0.2239
     27 C          64.7393   91.7077   12.7305 C.ar    1  UNL1        0.0857
     28 C          65.8201   92.6761   12.3507 C.ar    1  UNL1        0.0192
     29 C          66.9722   92.9166   13.2806 C.ar    1  UNL1        0.0054
     30 C          67.0435   92.1888   14.5903 C.ar    1  UNL1        0.0716
     31 C          65.9628   91.2204   14.9701 C.ar    1  UNL1        0.0081
     32 C          64.8106   90.9799   14.0401 C.ar    1  UNL1        0.0491
     33 C          68.1956   92.4293   15.5202 C.3     1  UNL1        0.4186
     34 F          69.3478   92.6699   16.4502 F       1  UNL1       -0.1659
     35 F          69.1487   92.3231   14.3669 F       1  UNL1       -0.1659
     36 F          67.2426   92.5355   16.6736 F       1  UNL1       -0.1659
@<TRIPOS>BOND
     1    18    19    1
     2     7    19    1
     3     7     8    1
     4     8     9    1
     5     9    10    1
     6    10     1    1
     7     1     2    1
     8     2     3    1
     9     3     4    1
    10     4    21    1
    11    21    23    1
    12    23    24   ar
    13    24    25   ar
    14    25    26   ar
    15    26    27   ar
    16    27    28   ar
    17    28    29   ar
    18    29    30   ar
    19    30    33    1
    20    33    34    1
    21    33    35    1
    22    33    36    1
    23    30    31   ar
    24    31    32   ar
    25     4     5    1
    26     5     6    2
    27    10    11    1
    28    11    13    1
    29    13    14   am
    30    14    15    1
    31    14    16    2
    32    11    12    1
    33    12     7    1
    34     5     1   am
    35    32    23   ar
    36    32    27   ar
    37    19    20    1
    38    21    22    1
    39    13    17    1
