@<TRIPOS>MOLECULE
*****
 29 32 0 0 0
SMALL
GASTEIGER

@<TRIPOS>ATOM
      1 C          62.6148   89.5670   11.7983 C.ar    1  UNL1        0.1534
      2 C          63.2410   89.6865   13.1562 C.ar    1  UNL1        0.0351
      3 C          64.2268   90.7823   13.4336 C.ar    1  UNL1        0.0722
      4 CL         64.8529   90.9018   14.7915 Cl      1  UNL1       -0.0809
      5 C          64.5867   91.7587   12.3533 C.ar    1  UNL1        0.0577
      6 C          63.9607   91.6392   10.9955 C.ar    1  UNL1        0.0462
      7 C          62.9747   90.5434   10.7179 C.ar    1  UNL1        0.1602
      8 F          62.3487   90.4239    9.3601 F       1  UNL1       -0.2027
      9 O          62.6961   87.4474   11.7723 O.2     1  UNL1       -0.1498
     10 S          61.6290   88.4711   11.5208 S.O2    1  UNL1        0.0772
     11 O          60.5618   89.4947   11.2694 O.2     1  UNL1       -0.1498
     12 N          60.6431   87.3751   11.2434 N.pl3   1  UNL1       -0.1936
     13 H          60.1923   86.9181   11.9898 H       1  UNL1        0.1758
     14 C          60.3442   86.9755    9.8289 C.ar    1  UNL1        0.1786
     15 N          59.1477   87.3962    9.0280 N.ar    1  UNL1       -0.2214
     16 C          59.2533   86.7658    7.6709 C.ar    1  UNL1        0.1079
     17 C          60.5151   85.9555    7.6332 C.ar    1  UNL1        0.0588
     18 S          61.1893   86.0852    8.9669 S.2     1  UNL1       -0.0497
     19 N          65.5727   92.8546   12.6309 N.pl3   1  UNL1       -0.3318
     20 H          65.3488   93.5673   13.2720 H       1  UNL1        0.1468
     21 C          66.8996   92.8644   11.9315 C.3     1  UNL1        0.0920
     22 C          67.0773   93.6585   10.6714 C.3     1  UNL1        0.0747
     23 C          67.7437   92.3285   10.4790 C.3     1  UNL1        0.0388
     24 C          68.3332   92.3006    9.1000 C.3     1  UNL1        0.1450
     25 O          68.0312   93.6134    8.4401 O.3     1  UNL1       -0.3305
     26 C          67.2549   94.4526    9.4112 C.3     1  UNL1        0.2365
     27 O          66.5885   95.7826    9.6036 O.3     1  UNL1       -0.3305
     28 C          65.9989   95.8105   10.9827 C.3     1  UNL1        0.1450
     29 C          66.3011   94.4977   11.6425 C.3     1  UNL1        0.0388
@<TRIPOS>BOND
     1     9    10    2
     2    10    11    2
     3    10    12    1
     4    12    14    1
     5    14    15   ar
     6    15    16   ar
     7    16    17   ar
     8    17    18   ar
     9    10     1    1
    10     1     2   ar
    11     2     3   ar
    12     3     4    1
    13     3     5   ar
    14     5    19    1
    15    19    21    1
    16    22    21    1
    17    22    23    1
    18    23    24    1
    19    24    25    1
    20    26    25    1
    21    26    27    1
    22    27    28    1
    23    28    29    1
    24     5     6   ar
    25     6     7   ar
    26     7     8    1
    27    18    14   ar
    28     7     1   ar
    29    26    22    1
    30    29    22    1
    31    12    13    1
    32    19    20    1
@<TRIPOS>MOLECULE
*****
 29 32 0 0 0
SMALL
GASTEIGER

@<TRIPOS>ATOM
      1 C          62.6077   89.5360   11.7618 C.ar    1  UNL1        0.1534
      2 C          63.2433   89.6537   13.1154 C.ar    1  UNL1        0.0351
      3 C          64.2226   90.7558   13.3908 C.ar    1  UNL1        0.0722
      4 CL         64.8582   90.8735   14.7445 Cl      1  UNL1       -0.0809
      5 C          64.5665   91.7404   12.3127 C.ar    1  UNL1        0.0577
      6 C          63.9310   91.6228   10.9591 C.ar    1  UNL1        0.0462
      7 C          62.9515   90.5206   10.6837 C.ar    1  UNL1        0.1602
      8 F          62.3160   90.4029    9.3301 F       1  UNL1       -0.2027
      9 O          60.5545   89.4507   11.2352 O.2     1  UNL1       -0.1498
     10 S          61.6283   88.4338   11.4864 S.O2    1  UNL1        0.0772
     11 O          62.7019   87.4169   11.7376 O.2     1  UNL1       -0.1498
     12 N          60.6488   87.3316   11.2110 N.pl3   1  UNL1       -0.1936
     13 H          60.2002   86.8737   11.9582 H       1  UNL1        0.1758
     14 C          60.3528   86.9272    9.7972 C.ar    1  UNL1        0.1786
     15 N          59.1325   87.3029    9.0099 N.ar    1  UNL1       -0.2214
     16 C          59.2506   86.6840    7.6486 C.ar    1  UNL1        0.1079
     17 C          60.5438   85.9259    7.5946 C.ar    1  UNL1        0.0588
     18 S          61.2249   86.0762    8.9226 S.2     1  UNL1       -0.0497
     19 N          65.5459   92.8426   12.5882 N.pl3   1  UNL1       -0.3318
     20 H          65.3124   93.5627   13.2176 H       1  UNL1        0.1468
     21 C          66.8811   92.8477   11.9047 C.3     1  UNL1        0.0920
     22 C          67.0873   93.6707   10.6677 C.3     1  UNL1        0.0747
     23 C          66.3172   94.4994   11.6528 C.3     1  UNL1        0.0388
     24 C          66.0475   95.8345   11.0246 C.3     1  UNL1        0.1450
     25 O          66.6509   95.8310    9.6513 O.3     1  UNL1       -0.3305
     26 C          67.2935   94.4937    9.4307 C.3     1  UNL1        0.2365
     27 O          68.0636   93.6651    8.4457 O.3     1  UNL1       -0.3305
     28 C          68.3334   92.3299    9.0739 C.3     1  UNL1        0.1450
     29 C          67.7300   92.3334   10.4472 C.3     1  UNL1        0.0388
@<TRIPOS>BOND
     1     9    10    2
     2    10    11    2
     3    10    12    1
     4    12    14    1
     5    14    15   ar
     6    15    16   ar
     7    16    17   ar
     8    17    18   ar
     9    10     1    1
    10     1     2   ar
    11     2     3   ar
    12     3     4    1
    13     3     5   ar
    14     5    19    1
    15    19    21    1
    16    22    21    1
    17    22    23    1
    18    23    24    1
    19    24    25    1
    20    26    25    1
    21    26    27    1
    22    27    28    1
    23    28    29    1
    24     5     6   ar
    25     6     7   ar
    26     7     8    1
    27    18    14   ar
    28     7     1   ar
    29    26    22    1
    30    29    22    1
    31    12    13    1
    32    19    20    1
@<TRIPOS>MOLECULE
*****
 29 32 0 0 0
SMALL
GASTEIGER

@<TRIPOS>ATOM
      1 C          65.5892   92.3531   12.6798 C.ar    1  UNL1        0.1534
      2 C          64.3923   91.7774   11.9825 C.ar    1  UNL1        0.0351
      3 C          63.7112   90.5632   12.5406 C.ar    1  UNL1        0.0722
      4 CL         62.5143   89.9875   11.8434 Cl      1  UNL1       -0.0809
      5 C          64.2269   89.9245   13.7961 C.ar    1  UNL1        0.0577
      6 C          65.4237   90.5002   14.4934 C.ar    1  UNL1        0.0462
      7 C          66.1049   91.7144   13.9352 C.ar    1  UNL1        0.1602
      8 F          67.3017   92.2901   14.6325 F       1  UNL1       -0.2027
      9 O          66.5180   92.8368   10.8350 O.2     1  UNL1       -0.1498
     10 S          66.2703   93.5673   12.1215 S.O2    1  UNL1        0.0772
     11 O          66.0226   94.2978   13.4079 O.2     1  UNL1       -0.1498
     12 N          66.9514   94.7815   11.5631 N.pl3   1  UNL1       -0.1936
     13 H          67.8028   95.0897   11.9496 H       1  UNL1        0.1758
     14 C          66.3352   95.5262   10.4160 C.ar    1  UNL1        0.1786
     15 N          64.9903   96.1902   10.4167 N.ar    1  UNL1       -0.2214
     16 C          64.7796   96.8120    9.0679 C.ar    1  UNL1        0.1079
     17 C          65.9944   96.5322    8.2338 C.ar    1  UNL1        0.0588
     18 S          66.9559   95.7375    9.0669 S.2     1  UNL1       -0.0497
     19 N          63.5457   88.7103   14.3543 N.pl3   1  UNL1       -0.3318
     20 H          62.5693   88.6130   14.2740 H       1  UNL1        0.1468
     21 C          64.3522   87.6441   15.0347 C.3     1  UNL1        0.0920
     22 C          63.6699   86.4338   15.6001 C.3     1  UNL1        0.0747
     23 C          64.3643   86.0257   14.3346 C.3     1  UNL1        0.0388
     24 C          64.1111   84.5632   14.1180 C.3     1  UNL1        0.1450
     25 O          63.2604   84.0674   15.2495 O.3     1  UNL1       -0.3305
     26 C          62.9877   85.2235   16.1655 C.3     1  UNL1        0.2365
     27 O          62.2933   85.6315   17.4310 O.3     1  UNL1       -0.3305
     28 C          62.5464   87.0941   17.6477 C.3     1  UNL1        0.1450
     29 C          63.3972   87.5899   16.5161 C.3     1  UNL1        0.0388
@<TRIPOS>BOND
     1     9    10    2
     2    10    11    2
     3    10    12    1
     4    12    14    1
     5    14    15   ar
     6    15    16   ar
     7    16    17   ar
     8    17    18   ar
     9    10     1    1
    10     1     2   ar
    11     2     3   ar
    12     3     4    1
    13     3     5   ar
    14     5    19    1
    15    19    21    1
    16    22    21    1
    17    22    23    1
    18    23    24    1
    19    24    25    1
    20    26    25    1
    21    26    27    1
    22    27    28    1
    23    28    29    1
    24     5     6   ar
    25     6     7   ar
    26     7     8    1
    27    18    14   ar
    28     7     1   ar
    29    26    22    1
    30    29    22    1
    31    12    13    1
    32    19    20    1
@<TRIPOS>MOLECULE
*****
 29 32 0 0 0
SMALL
GASTEIGER

@<TRIPOS>ATOM
      1 C          63.6946   85.8054   13.9344 C.ar    1  UNL1        0.1534
      2 C          63.0899   86.1925   12.6173 C.ar    1  UNL1        0.0351
      3 C          63.0805   87.6302   12.1900 C.ar    1  UNL1        0.0722
      4 CL         62.4758   88.0172   10.8728 Cl      1  UNL1       -0.0809
      5 C          63.6756   88.6810   13.0796 C.ar    1  UNL1        0.0577
      6 C          64.2802   88.2940   14.3967 C.ar    1  UNL1        0.0462
      7 C          64.2897   86.8562   14.8241 C.ar    1  UNL1        0.1602
      8 F          64.8943   86.4693   16.1411 F       1  UNL1       -0.2027
      9 O          62.2391   84.4509   14.6738 O.2     1  UNL1       -0.1498
     10 S          63.7040   84.3676   14.3617 S.O2    1  UNL1        0.0772
     11 O          65.1687   84.2844   14.0496 O.2     1  UNL1       -0.1498
     12 N          63.7132   82.9298   14.7890 N.pl3   1  UNL1       -0.1936
     13 H          64.0059   82.6881   15.6974 H       1  UNL1        0.1758
     14 C          63.2766   81.8602   13.8323 C.ar    1  UNL1        0.1786
     15 N          62.7310   80.5135   14.2046 N.ar    1  UNL1       -0.2214
     16 C          62.4261   79.7705   12.9377 C.ar    1  UNL1        0.1079
     17 C          62.7832   80.6580   11.7825 C.ar    1  UNL1        0.0588
     18 S          63.3089   81.9496   12.3353 S.2     1  UNL1       -0.0497
     19 N          63.6662   90.1188   12.6522 N.pl3   1  UNL1       -0.3318
     20 H          63.2181   90.3807   11.8156 H       1  UNL1        0.1468
     21 C          64.3393   91.1575   13.4995 C.3     1  UNL1        0.0920
     22 C          65.5763   91.8447   13.0019 C.3     1  UNL1        0.0747
     23 C          65.8382   91.3758   14.4024 C.3     1  UNL1        0.0388
     24 C          67.2370   91.7732   14.7703 C.3     1  UNL1        0.1450
     25 O          67.8397   92.4877   13.5972 O.3     1  UNL1       -0.3305
     26 C          66.8133   92.5319   12.5042 C.3     1  UNL1        0.2365
     27 O          66.5515   93.0009   11.1037 O.3     1  UNL1       -0.3305
     28 C          65.1526   92.6035   10.7357 C.3     1  UNL1        0.1450
     29 C          64.5500   91.8890   11.9089 C.3     1  UNL1        0.0388
@<TRIPOS>BOND
     1     9    10    2
     2    10    11    2
     3    10    12    1
     4    12    14    1
     5    14    15   ar
     6    15    16   ar
     7    16    17   ar
     8    17    18   ar
     9    10     1    1
    10     1     2   ar
    11     2     3   ar
    12     3     4    1
    13     3     5   ar
    14     5    19    1
    15    19    21    1
    16    22    21    1
    17    22    23    1
    18    23    24    1
    19    24    25    1
    20    26    25    1
    21    26    27    1
    22    27    28    1
    23    28    29    1
    24     5     6   ar
    25     6     7   ar
    26     7     8    1
    27    18    14   ar
    28     7     1   ar
    29    26    22    1
    30    29    22    1
    31    12    13    1
    32    19    20    1
@<TRIPOS>MOLECULE
*****
 29 32 0 0 0
SMALL
GASTEIGER

@<TRIPOS>ATOM
      1 C          62.9932   88.8677   11.9964 C.ar    1  UNL1        0.1534
      2 C          63.6985   89.3089   13.2446 C.ar    1  UNL1        0.0351
      3 C          64.3583   90.6549   13.2973 C.ar    1  UNL1        0.0722
      4 CL         65.0636   91.0961   14.5455 Cl      1  UNL1       -0.0809
      5 C          64.3128   91.5598   12.1019 C.ar    1  UNL1        0.0577
      6 C          63.6075   91.1187   10.8537 C.ar    1  UNL1        0.0462
      7 C          62.9477   89.7726   10.8010 C.ar    1  UNL1        0.1602
      8 F          62.2424   89.3315    9.5528 F       1  UNL1       -0.2027
      9 O          61.1633   88.1234   11.2235 O.2     1  UNL1       -0.1498
     10 S          62.3335   87.5217   11.9437 S.O2    1  UNL1        0.0772
     11 O          63.5035   86.9199   12.6639 O.2     1  UNL1       -0.1498
     12 N          61.6736   86.1756   11.8910 N.pl3   1  UNL1       -0.1936
     13 H          60.7331   86.0774   12.1651 H       1  UNL1        0.1758
     14 C          62.4466   84.9793   11.4207 C.ar    1  UNL1        0.1786
     15 N          63.0579   84.8029   10.0624 N.ar    1  UNL1       -0.2214
     16 C          63.7332   83.4639   10.0283 C.ar    1  UNL1        0.1079
     17 C          63.5392   82.8128   11.3656 C.ar    1  UNL1        0.0588
     18 S          62.7441   83.7494   12.2262 S.2     1  UNL1       -0.0497
     19 N          64.9726   92.9059   12.1547 N.pl3   1  UNL1       -0.3318
     20 H          64.4388   93.7082   12.3560 H       1  UNL1        0.1468
     21 C          66.4457   93.0295   11.9006 C.3     1  UNL1        0.0920
     22 C          66.9401   93.8140   10.7215 C.3     1  UNL1        0.0747
     23 C          66.1682   94.7462   11.6076 C.3     1  UNL1        0.0388
     24 C          66.1856   96.1066   10.9761 C.3     1  UNL1        0.1450
     25 O          66.9683   96.0153    9.6997 O.3     1  UNL1       -0.3305
     26 C          67.4346   94.5984    9.5423 C.3     1  UNL1        0.2365
     27 O          68.2065   93.6662    8.6562 O.3     1  UNL1       -0.3305
     28 C          68.1891   92.3056    9.2877 C.3     1  UNL1        0.1450
     29 C          67.4065   92.3970   10.5641 C.3     1  UNL1        0.0388
@<TRIPOS>BOND
     1     9    10    2
     2    10    11    2
     3    10    12    1
     4    12    14    1
     5    14    15   ar
     6    15    16   ar
     7    16    17   ar
     8    17    18   ar
     9    10     1    1
    10     1     2   ar
    11     2     3   ar
    12     3     4    1
    13     3     5   ar
    14     5    19    1
    15    19    21    1
    16    22    21    1
    17    22    23    1
    18    23    24    1
    19    24    25    1
    20    26    25    1
    21    26    27    1
    22    27    28    1
    23    28    29    1
    24     5     6   ar
    25     6     7   ar
    26     7     8    1
    27    18    14   ar
    28     7     1   ar
    29    26    22    1
    30    29    22    1
    31    12    13    1
    32    19    20    1
@<TRIPOS>MOLECULE
*****
 29 32 0 0 0
SMALL
GASTEIGER

@<TRIPOS>ATOM
      1 C          62.9579   88.9196   11.9669 C.ar    1  UNL1        0.1534
      2 C          63.6855   89.3227   13.2152 C.ar    1  UNL1        0.0351
      3 C          64.3753   90.6527   13.2849 C.ar    1  UNL1        0.0722
      4 CL         65.1029   91.0558   14.5332 Cl      1  UNL1       -0.0809
      5 C          64.3376   91.5799   12.1064 C.ar    1  UNL1        0.0577
      6 C          63.6100   91.1769   10.8581 C.ar    1  UNL1        0.0462
      7 C          62.9201   89.8468   10.7883 C.ar    1  UNL1        0.1602
      8 F          62.1926   89.4438    9.5400 F       1  UNL1       -0.2027
      9 O          63.4213   86.9539   12.6157 O.2     1  UNL1       -0.1498
     10 S          62.2681   87.5895   11.8972 S.O2    1  UNL1        0.0772
     11 O          61.1149   88.2250   11.1788 O.2     1  UNL1       -0.1498
     12 N          61.5783   86.2593   11.8277 N.pl3   1  UNL1       -0.1936
     13 H          60.6192   86.1905   12.0389 H       1  UNL1        0.1758
     14 C          62.3499   85.0340   11.4362 C.ar    1  UNL1        0.1786
     15 N          62.6192   83.8451   12.3102 N.ar    1  UNL1       -0.2214
     16 C          63.4234   82.8587   11.5162 C.ar    1  UNL1        0.1079
     17 C          63.6510   83.4380   10.1515 C.ar    1  UNL1        0.0588
     18 S          62.9876   84.7824   10.1020 S.2     1  UNL1       -0.0497
     19 N          65.0274   92.9100   12.1761 N.pl3   1  UNL1       -0.3318
     20 H          64.5173   93.7171   12.4161 H       1  UNL1        0.1468
     21 C          66.4945   93.0105   11.8802 C.3     1  UNL1        0.0920
     22 C          66.9674   93.7862   10.6865 C.3     1  UNL1        0.0747
     23 C          67.4434   92.3715   10.5382 C.3     1  UNL1        0.0388
     24 C          68.2104   92.2730    9.2529 C.3     1  UNL1        0.1450
     25 O          68.2085   93.6268    8.6069 O.3     1  UNL1       -0.3305
     26 C          67.4402   94.5620    9.4930 C.3     1  UNL1        0.2365
     27 O          66.9642   95.9767    9.6414 O.3     1  UNL1       -0.3305
     28 C          66.1972   96.0753   10.9267 C.3     1  UNL1        0.1450
     29 C          66.1992   94.7214   11.5726 C.3     1  UNL1        0.0388
@<TRIPOS>BOND
     1     9    10    2
     2    10    11    2
     3    10    12    1
     4    12    14    1
     5    14    15   ar
     6    15    16   ar
     7    16    17   ar
     8    17    18   ar
     9    10     1    1
    10     1     2   ar
    11     2     3   ar
    12     3     4    1
    13     3     5   ar
    14     5    19    1
    15    19    21    1
    16    22    21    1
    17    22    23    1
    18    23    24    1
    19    24    25    1
    20    26    25    1
    21    26    27    1
    22    27    28    1
    23    28    29    1
    24     5     6   ar
    25     6     7   ar
    26     7     8    1
    27    18    14   ar
    28     7     1   ar
    29    26    22    1
    30    29    22    1
    31    12    13    1
    32    19    20    1
@<TRIPOS>MOLECULE
*****
 29 32 0 0 0
SMALL
GASTEIGER

@<TRIPOS>ATOM
      1 C          64.1528   89.0565   14.3120 C.ar    1  UNL1        0.1534
      2 C          64.9765   90.1200   14.9759 C.ar    1  UNL1        0.0351
      3 C          65.2757   91.3987   14.2512 C.ar    1  UNL1        0.0722
      4 CL         66.0994   92.4621   14.9151 Cl      1  UNL1       -0.0809
      5 C          64.7512   91.6140   12.8625 C.ar    1  UNL1        0.0577
      6 C          63.9276   90.5507   12.1986 C.ar    1  UNL1        0.0462
      7 C          63.6284   89.2719   12.9233 C.ar    1  UNL1        0.1602
      8 F          62.8047   88.2085   12.2594 F       1  UNL1       -0.2027
      9 O          64.7537   87.0337   14.0954 O.2     1  UNL1       -0.1498
     10 S          63.8537   87.7779   15.0369 S.O2    1  UNL1        0.0772
     11 O          62.9538   88.5219   15.9783 O.2     1  UNL1       -0.1498
     12 N          63.5547   86.4991   15.7616 N.pl3   1  UNL1       -0.1936
     13 H          63.4518   86.5007   16.7407 H       1  UNL1        0.1758
     14 C          63.4125   85.2179   14.9947 C.ar    1  UNL1        0.1786
     15 N          62.4843   84.9796   13.8407 N.ar    1  UNL1       -0.2214
     16 C          62.6716   83.5644   13.3797 C.ar    1  UNL1        0.1079
     17 C          63.7155   82.9282   14.2489 C.ar    1  UNL1        0.0588
     18 S          64.1734   83.9501   15.2470 S.2     1  UNL1       -0.0497
     19 N          65.0504   92.8928   12.1377 N.pl3   1  UNL1       -0.3318
     20 H          64.3148   93.4873   11.8642 H       1  UNL1        0.1468
     21 C          66.4702   93.2658   11.8297 C.3     1  UNL1        0.0920
     22 C          66.8291   93.7951   10.4728 C.3     1  UNL1        0.0747
     23 C          65.9139   94.7856   11.1295 C.3     1  UNL1        0.0388
     24 C          65.7072   95.9270   10.1784 C.3     1  UNL1        0.1450
     25 O          66.4947   95.6419    8.9340 O.3     1  UNL1       -0.3305
     26 C          67.1881   94.3242    9.1159 C.3     1  UNL1        0.2365
     27 O          68.1033   93.3337    8.4593 O.3     1  UNL1       -0.3305
     28 C          68.3100   92.1923    9.4103 C.3     1  UNL1        0.1450
     29 C          67.5225   92.4775   10.6548 C.3     1  UNL1        0.0388
@<TRIPOS>BOND
     1     9    10    2
     2    10    11    2
     3    10    12    1
     4    12    14    1
     5    14    15   ar
     6    15    16   ar
     7    16    17   ar
     8    17    18   ar
     9    10     1    1
    10     1     2   ar
    11     2     3   ar
    12     3     4    1
    13     3     5   ar
    14     5    19    1
    15    19    21    1
    16    22    21    1
    17    22    23    1
    18    23    24    1
    19    24    25    1
    20    26    25    1
    21    26    27    1
    22    27    28    1
    23    28    29    1
    24     5     6   ar
    25     6     7   ar
    26     7     8    1
    27    18    14   ar
    28     7     1   ar
    29    26    22    1
    30    29    22    1
    31    12    13    1
    32    19    20    1
@<TRIPOS>MOLECULE
*****
 29 32 0 0 0
SMALL
GASTEIGER

@<TRIPOS>ATOM
      1 C          64.5696   91.4080   12.0763 C.ar    1  UNL1        0.1534
      2 C          64.6969   90.3783   13.1597 C.ar    1  UNL1        0.0351
      3 C          63.8464   89.1434   13.1243 C.ar    1  UNL1        0.0722
      4 CL         63.9738   88.1137   14.2077 Cl      1  UNL1       -0.0809
      5 C          62.8685   88.9379   12.0057 C.ar    1  UNL1        0.0577
      6 C          62.7411   89.9675   10.9223 C.ar    1  UNL1        0.0462
      7 C          63.5917   91.2026   10.9577 C.ar    1  UNL1        0.1602
      8 F          63.4643   92.2322    9.8743 F       1  UNL1       -0.2027
      9 O          65.7233   92.4760   10.6522 O.2     1  UNL1       -0.1498
     10 S          65.4201   92.6430   12.1118 S.O2    1  UNL1        0.0772
     11 O          65.1169   92.8100   13.5712 O.2     1  UNL1       -0.1498
     12 N          66.2707   93.8780   12.1471 N.pl3   1  UNL1       -0.1936
     13 H          66.6678   94.1781   12.9965 H       1  UNL1        0.1758
     14 C          66.5162   94.6559   10.8883 C.ar    1  UNL1        0.1786
     15 N          67.6640   94.4625    9.9421 N.ar    1  UNL1       -0.2214
     16 C          67.5142   95.4507    8.8236 C.ar    1  UNL1        0.1079
     17 C          66.2740   96.2549    9.0786 C.ar    1  UNL1        0.0588
     18 S          65.6571   95.7636   10.3546 S.2     1  UNL1       -0.0497
     19 N          62.0180   87.7028   11.9703 N.pl3   1  UNL1       -0.3318
     20 H          61.5811   87.3823   12.7923 H       1  UNL1        0.1468
     21 C          61.8331   86.9561   10.6826 C.3     1  UNL1        0.0920
     22 C          62.4947   85.6242   10.4864 C.3     1  UNL1        0.0747
     23 C          62.3807   86.2872    9.1457 C.3     1  UNL1        0.0388
     24 C          62.9719   85.3650    8.1209 C.3     1  UNL1        0.1450
     25 O          63.4511   84.1321    8.8283 O.3     1  UNL1       -0.3305
     26 C          63.1562   84.2924   10.2902 C.3     1  UNL1        0.2365
     27 O          63.2702   83.6294   11.6310 O.3     1  UNL1       -0.3305
     28 C          62.6790   84.5516   12.6558 C.3     1  UNL1        0.1450
     29 C          62.1997   85.7845   11.9483 C.3     1  UNL1        0.0388
@<TRIPOS>BOND
     1     9    10    2
     2    10    11    2
     3    10    12    1
     4    12    14    1
     5    14    15   ar
     6    15    16   ar
     7    16    17   ar
     8    17    18   ar
     9    10     1    1
    10     1     2   ar
    11     2     3   ar
    12     3     4    1
    13     3     5   ar
    14     5    19    1
    15    19    21    1
    16    22    21    1
    17    22    23    1
    18    23    24    1
    19    24    25    1
    20    26    25    1
    21    26    27    1
    22    27    28    1
    23    28    29    1
    24     5     6   ar
    25     6     7   ar
    26     7     8    1
    27    18    14   ar
    28     7     1   ar
    29    26    22    1
    30    29    22    1
    31    12    13    1
    32    19    20    1
@<TRIPOS>MOLECULE
*****
 29 32 0 0 0
SMALL
GASTEIGER

@<TRIPOS>ATOM
      1 C          64.8879   91.7972   12.0033 C.ar    1  UNL1        0.1534
      2 C          64.9289   90.8322   13.1510 C.ar    1  UNL1        0.0351
      3 C          63.9647   89.6843   13.2006 C.ar    1  UNL1        0.0722
      4 CL         64.0057   88.7193   14.3483 Cl      1  UNL1       -0.0809
      5 C          62.9594   89.5013   12.1025 C.ar    1  UNL1        0.0577
      6 C          62.9183   90.4663   10.9548 C.ar    1  UNL1        0.0462
      7 C          63.8826   91.6142   10.9052 C.ar    1  UNL1        0.1602
      8 F          63.8415   92.5792    9.7576 F       1  UNL1       -0.2027
      9 O          66.3348   92.4817   10.6114 O.2     1  UNL1       -0.1498
     10 S          65.8521   92.9451   11.9539 S.O2    1  UNL1        0.0772
     11 O          65.3695   93.4085   13.2963 O.2     1  UNL1       -0.1498
     12 N          66.8164   94.0930   11.9043 N.pl3   1  UNL1       -0.1936
     13 H          67.4800   94.2098   12.6221 H       1  UNL1        0.1758
     14 C          66.7697   95.0630   10.7611 C.ar    1  UNL1        0.1786
     15 N          67.7864   95.1833    9.6648 N.ar    1  UNL1       -0.2214
     16 C          67.3431   96.2776    8.7396 C.ar    1  UNL1        0.1079
     17 C          66.0525   96.8336    9.2641 C.ar    1  UNL1        0.0588
     18 S          65.6981   96.0829   10.5134 S.2     1  UNL1       -0.0497
     19 N          61.9951   88.3534   12.1521 N.pl3   1  UNL1       -0.3318
     20 H          62.1183   87.6353   12.8142 H       1  UNL1        0.1468
     21 C          60.8433   88.2994   11.1927 C.3     1  UNL1        0.0920
     22 C          60.9050   87.3960    9.9968 C.3     1  UNL1        0.0747
     23 C          61.6264   86.7209   11.1254 C.3     1  UNL1        0.0388
     24 C          62.1340   85.4003   10.6270 C.3     1  UNL1        0.1450
     25 O          61.7262   85.2592    9.1904 O.3     1  UNL1       -0.3305
     26 C          60.9666   86.4927    8.8009 C.3     1  UNL1        0.2365
     27 O          60.2452   87.1678    7.6723 O.3     1  UNL1       -0.3305
     28 C          59.7376   88.4884    8.1707 C.3     1  UNL1        0.1450
     29 C          60.1454   88.6294    9.6074 C.3     1  UNL1        0.0388
@<TRIPOS>BOND
     1     9    10    2
     2    10    11    2
     3    10    12    1
     4    12    14    1
     5    14    15   ar
     6    15    16   ar
     7    16    17   ar
     8    17    18   ar
     9    10     1    1
    10     1     2   ar
    11     2     3   ar
    12     3     4    1
    13     3     5   ar
    14     5    19    1
    15    19    21    1
    16    22    21    1
    17    22    23    1
    18    23    24    1
    19    24    25    1
    20    26    25    1
    21    26    27    1
    22    27    28    1
    23    28    29    1
    24     5     6   ar
    25     6     7   ar
    26     7     8    1
    27    18    14   ar
    28     7     1   ar
    29    26    22    1
    30    29    22    1
    31    12    13    1
    32    19    20    1
