@<TRIPOS>MOLECULE
*****
 39 42 0 0 0
SMALL
GASTEIGER

@<TRIPOS>ATOM
      1 C          62.4745   84.4812   13.5735 C.3     1  UNL1        0.1678
      2 C          62.5995   85.2570   12.2957 C.2     1  UNL1        0.2492
      3 O          62.3774   84.4751   11.0351 O.2     1  UNL1       -0.2727
      4 N          62.9172   86.7114   12.1121 N.am    1  UNL1       -0.2518
      5 C          63.1885   87.7492   13.1606 C.ar    1  UNL1        0.0679
      6 C          63.4645   89.0896   12.5466 C.ar    1  UNL1        0.0169
      7 C          63.7610   90.2697   13.4238 C.ar    1  UNL1        0.0116
      8 C          63.7815   90.1093   14.9150 C.ar    1  UNL1        0.0698
      9 C          63.5055   88.7689   15.5291 C.ar    1  UNL1        0.0264
     10 C          63.2089   87.5889   14.6519 C.ar    1  UNL1        0.0682
     11 N          62.9632   86.3511   15.4629 N.am    1  UNL1       -0.2570
     12 C          63.0568   86.5186   16.9506 C.2     1  UNL1        0.2299
     13 C          63.3787   87.8620   17.5354 C.3     1  UNL1        0.0952
     14 O          62.8284   85.3428   17.8535 O.2     1  UNL1       -0.2745
     15 C          62.6364   84.9681   14.9830 C.3     1  UNL1        0.1066
     16 C          62.4463   83.9354   16.0541 C.3     1  UNL1        0.0242
     17 C          63.2027   82.0582   12.9829 C.2     1  UNL1        0.2371
     18 O          64.5921   82.5456   12.6962 O.2     1  UNL1       -0.2737
     19 N          62.1440   83.0260   13.4215 N.am    1  UNL1       -0.2959
     20 H          61.2321   82.7061   13.6097 H       1  UNL1        0.1499
     21 C          62.8721   80.6029   12.8310 C.3     1  UNL1        0.1316
     22 C          62.4820   79.7931   14.0319 C.3     1  UNL1        0.0270
     23 C          63.1315   80.8001   10.2535 C.3     1  UNL1        0.0862
     24 N          62.9317   79.9576   11.4783 N.3     1  UNL1       -0.2902
     25 H          63.7016   79.2891   11.5047 H       1  UNL1        0.1237
     26 C          64.0780   91.2895   15.7922 C.1     1  UNL1        0.1005
     27 N          64.3746   92.4695   16.6694 N.1     1  UNL1       -0.1908
     28 C          62.9708   87.1916   10.6920 C.3     1  UNL1        0.1245
     29 C          61.7515   87.1008    9.8230 C.ar    1  UNL1       -0.0059
     30 C          60.5248   87.8925   10.1670 C.ar    1  UNL1       -0.0242
     31 C          60.3393   88.3996   10.7535 C.3     1  UNL1        0.0308
     32 C          59.3055   87.8018    9.2981 C.ar    1  UNL1       -0.0045
     33 C          59.3129   86.9193    8.0851 C.ar    1  UNL1       -0.0003
     34 C          60.5397   86.1276    7.7411 C.ar    1  UNL1       -0.0003
     35 C          60.5471   85.2451    6.5282 C.ar    1  UNL1       -0.0000
     36 C          61.7739   84.4534    6.1843 C.ar    1  UNL1       -0.0000
     37 C          62.9932   84.5441    7.0532 C.ar    1  UNL1       -0.0000
     38 C          62.9857   85.4266    8.2661 C.ar    1  UNL1       -0.0003
     39 C          61.7590   86.2183    8.6101 C.ar    1  UNL1       -0.0027
@<TRIPOS>BOND
     1    23    24    1
     2    24    21    1
     3    21    22    1
     4    21    17    1
     5    17    18    2
     6    17    19   am
     7     1    19    1
     8     1     2    1
     9     2     3    2
    10     2     4   am
    11     4    28    1
    12    28    29    1
    13    29    30   ar
    14    30    31    1
    15    30    32   ar
    16    32    33   ar
    17    33    34   ar
    18    34    35   ar
    19    35    36   ar
    20    36    37   ar
    21    37    38   ar
    22    38    39   ar
    23     4     5    1
    24     5     6   ar
    25     6     7   ar
    26     7     8   ar
    27     8    26    1
    28    26    27    3
    29     8     9   ar
    30     9    10   ar
    31    10    11    1
    32    11    12   am
    33    12    13    1
    34    12    14    2
    35    11    15    1
    36    15    16    1
    37    15     1    1
    38    39    29   ar
    39    10     5   ar
    40    39    34   ar
    41    24    25    1
    42    19    20    1
@<TRIPOS>MOLECULE
*****
 39 42 0 0 0
SMALL
GASTEIGER

@<TRIPOS>ATOM
      1 C          63.1164   90.1091   14.8339 C.3     1  UNL1        0.1678
      2 C          62.4943   89.8869   13.4872 C.2     1  UNL1        0.2492
      3 O          61.3693   88.8956   13.4456 O.2     1  UNL1       -0.2727
      4 N          62.8484   90.5249   12.1766 N.am    1  UNL1       -0.2518
      5 C          63.9121   91.5427   11.8890 C.ar    1  UNL1        0.0679
      6 C          63.9326   91.9186   10.4370 C.ar    1  UNL1        0.0169
      7 C          64.9255   92.9256    9.9371 C.ar    1  UNL1        0.0116
      8 C          65.8978   93.5568   10.8890 C.ar    1  UNL1        0.0698
      9 C          65.8772   93.1809   12.3410 C.ar    1  UNL1        0.0264
     10 C          64.8844   92.1739   12.8410 C.ar    1  UNL1        0.0682
     11 N          65.0331   91.9431   14.3157 N.am    1  UNL1       -0.2570
     12 C          66.1112   92.7362   14.9930 C.2     1  UNL1        0.2299
     13 C          66.9570   93.6852   14.1967 C.3     1  UNL1        0.0952
     14 O          66.3436   92.5802   16.4667 O.2     1  UNL1       -0.2745
     15 C          64.2463   91.0243   15.2026 C.3     1  UNL1        0.1066
     16 C          64.6416   91.0199   16.6495 C.3     1  UNL1        0.0242
     17 C          63.0362   87.9262   16.2404 C.2     1  UNL1        0.2371
     18 O          64.1264   87.3401   15.3929 O.2     1  UNL1       -0.2737
     19 N          62.5313   89.3107   15.9609 N.am    1  UNL1       -0.2959
     20 H          61.8158   89.6954   16.5171 H       1  UNL1        0.1499
     21 C          62.4511   87.1278   17.3674 C.3     1  UNL1        0.1316
     22 C          62.7436   87.5099   18.7882 C.3     1  UNL1        0.0270
     23 C          62.0714   84.8451   16.1863 C.3     1  UNL1        0.0862
     24 N          61.5736   85.9472   17.0736 N.3     1  UNL1       -0.2902
     25 H          61.3431   85.5212   17.9713 H       1  UNL1        0.1237
     26 C          66.8907   94.5639   10.3890 C.1     1  UNL1        0.1005
     27 N          67.8836   95.5709    9.8890 N.1     1  UNL1       -0.1908
     28 C          62.0307   90.0872   10.9977 C.3     1  UNL1        0.1245
     29 C          61.9278   88.6303   10.6556 C.ar    1  UNL1       -0.0059
     30 C          62.7249   87.6207   11.4271 C.ar    1  UNL1       -0.0242
     31 C          63.2405   87.6682   12.0332 C.3     1  UNL1        0.0308
     32 C          62.6221   86.1639   11.0850 C.ar    1  UNL1       -0.0045
     33 C          61.7222   85.7167    9.9714 C.ar    1  UNL1       -0.0003
     34 C          60.9251   86.7263    9.1999 C.ar    1  UNL1       -0.0003
     35 C          60.0251   86.2791    8.0862 C.ar    1  UNL1       -0.0000
     36 C          59.2281   87.2888    7.3148 C.ar    1  UNL1       -0.0000
     37 C          59.3309   88.7457    7.6569 C.ar    1  UNL1       -0.0000
     38 C          60.2308   89.1928    8.7705 C.ar    1  UNL1       -0.0003
     39 C          61.0279   88.1832    9.5420 C.ar    1  UNL1       -0.0027
@<TRIPOS>BOND
     1    23    24    1
     2    24    21    1
     3    21    22    1
     4    21    17    1
     5    17    18    2
     6    17    19   am
     7     1    19    1
     8     1     2    1
     9     2     3    2
    10     2     4   am
    11     4    28    1
    12    28    29    1
    13    29    30   ar
    14    30    31    1
    15    30    32   ar
    16    32    33   ar
    17    33    34   ar
    18    34    35   ar
    19    35    36   ar
    20    36    37   ar
    21    37    38   ar
    22    38    39   ar
    23     4     5    1
    24     5     6   ar
    25     6     7   ar
    26     7     8   ar
    27     8    26    1
    28    26    27    3
    29     8     9   ar
    30     9    10   ar
    31    10    11    1
    32    11    12   am
    33    12    13    1
    34    12    14    2
    35    11    15    1
    36    15    16    1
    37    15     1    1
    38    39    29   ar
    39    10     5   ar
    40    39    34   ar
    41    24    25    1
    42    19    20    1
@<TRIPOS>MOLECULE
*****
 39 42 0 0 0
SMALL
GASTEIGER

@<TRIPOS>ATOM
      1 C          63.8677   89.0667   13.8760 C.3     1  UNL1        0.1678
      2 C          64.2570   87.6202   13.9555 C.2     1  UNL1        0.2492
      3 O          65.1775   87.2549   15.0820 O.2     1  UNL1       -0.2727
      4 N          63.8474   86.4908   13.0573 N.am    1  UNL1       -0.2518
      5 C          62.9474   86.5288   11.8579 C.ar    1  UNL1        0.0679
      6 C          62.7991   85.1698   11.2407 C.ar    1  UNL1        0.0169
      7 C          61.9381   84.9876   10.0260 C.ar    1  UNL1        0.0116
      8 C          61.2254   86.1645    9.4285 C.ar    1  UNL1        0.0698
      9 C          61.3737   87.5235   10.0457 C.ar    1  UNL1        0.0264
     10 C          62.2347   87.7057   11.2603 C.ar    1  UNL1        0.0682
     11 N          62.2460   89.1352   11.7147 N.am    1  UNL1       -0.2570
     12 C          61.4215   90.0846   10.8968 C.2     1  UNL1        0.2299
     13 C          60.6545   89.5812    9.7100 C.3     1  UNL1        0.0952
     14 O          61.3639   91.5374   11.2657 O.2     1  UNL1       -0.2745
     15 C          62.9727   89.7409   12.8788 C.3     1  UNL1        0.1066
     16 C          62.7788   91.2158   13.0710 C.3     1  UNL1        0.0242
     17 C          65.4757   90.9874   14.5650 C.2     1  UNL1        0.2371
     18 O          65.9184   91.1285   13.1387 O.2     1  UNL1       -0.2737
     19 N          64.4504   89.9565   14.9336 N.am    1  UNL1       -0.2959
     20 H          64.1599   89.8639   15.8697 H       1  UNL1        0.1499
     21 C          66.0585   91.8773   15.6227 C.3     1  UNL1        0.1316
     22 C          65.1586   92.5475   16.6183 C.3     1  UNL1        0.0270
     23 C          68.0919   93.4918   15.7141 C.3     1  UNL1        0.0862
     24 N          67.5410   92.0969   15.6847 N.3     1  UNL1       -0.2902
     25 H          67.8725   91.6315   16.5296 H       1  UNL1        0.1237
     26 C          60.3644   85.9822    8.2138 C.1     1  UNL1        0.1005
     27 N          59.5035   85.8000    6.9991 N.1     1  UNL1       -0.1908
     28 C          64.4125   85.1454   13.4045 C.3     1  UNL1        0.1245
     29 C          63.4922   83.9904   13.6672 C.ar    1  UNL1       -0.0059
     30 C          62.6554   83.9664   14.9118 C.ar    1  UNL1       -0.0242
     31 C          62.5679   84.4619   15.5300 C.3     1  UNL1        0.0308
     32 C          61.7351   82.8113   15.1746 C.ar    1  UNL1       -0.0045
     33 C          61.6517   81.6804   14.1927 C.ar    1  UNL1       -0.0003
     34 C          62.4886   81.7044   12.9481 C.ar    1  UNL1       -0.0003
     35 C          62.4052   80.5735   11.9662 C.ar    1  UNL1       -0.0000
     36 C          63.2421   80.5976   10.7217 C.ar    1  UNL1       -0.0000
     37 C          64.1624   81.7526   10.4589 C.ar    1  UNL1       -0.0000
     38 C          64.2458   82.8835   11.4408 C.ar    1  UNL1       -0.0003
     39 C          63.4089   82.8595   12.6853 C.ar    1  UNL1       -0.0027
@<TRIPOS>BOND
     1    23    24    1
     2    24    21    1
     3    21    22    1
     4    21    17    1
     5    17    18    2
     6    17    19   am
     7     1    19    1
     8     1     2    1
     9     2     3    2
    10     2     4   am
    11     4    28    1
    12    28    29    1
    13    29    30   ar
    14    30    31    1
    15    30    32   ar
    16    32    33   ar
    17    33    34   ar
    18    34    35   ar
    19    35    36   ar
    20    36    37   ar
    21    37    38   ar
    22    38    39   ar
    23     4     5    1
    24     5     6   ar
    25     6     7   ar
    26     7     8   ar
    27     8    26    1
    28    26    27    3
    29     8     9   ar
    30     9    10   ar
    31    10    11    1
    32    11    12   am
    33    12    13    1
    34    12    14    2
    35    11    15    1
    36    15    16    1
    37    15     1    1
    38    39    29   ar
    39    10     5   ar
    40    39    34   ar
    41    24    25    1
    42    19    20    1
@<TRIPOS>MOLECULE
*****
 39 42 0 0 0
SMALL
GASTEIGER

@<TRIPOS>ATOM
      1 C          59.8239   88.8886    8.4034 C.3     1  UNL1        0.1678
      2 C          60.3108   89.5127    9.6775 C.2     1  UNL1        0.2492
      3 O          59.8273   90.9071    9.9455 O.2     1  UNL1       -0.2727
      4 N          61.2174   88.9267   10.7190 N.am    1  UNL1       -0.2518
      5 C          61.8609   87.5720   10.7438 C.ar    1  UNL1        0.0679
      6 C          62.6977   87.3851   11.9745 C.ar    1  UNL1        0.0169
      7 C          63.4303   86.0948   12.1946 C.ar    1  UNL1        0.0116
      8 C          63.3261   84.9914   11.1838 C.ar    1  UNL1        0.0698
      9 C          62.4893   85.1783    9.9530 C.ar    1  UNL1        0.0264
     10 C          61.7567   86.4686    9.7330 C.ar    1  UNL1        0.0682
     11 N          60.9833   86.4475    8.4479 N.am    1  UNL1       -0.2570
     12 C          61.0834   85.1819    7.6489 C.2     1  UNL1        0.2299
     13 C          61.9186   84.0417    8.1513 C.3     1  UNL1        0.0952
     14 O          60.3483   85.0566    6.3473 O.2     1  UNL1       -0.2745
     15 C          60.1231   87.5244    7.8561 C.3     1  UNL1        0.1066
     16 C          59.4768   87.1935    6.5437 C.3     1  UNL1        0.0242
     17 C          59.4390   90.3871    6.3162 C.2     1  UNL1        0.2371
     18 O          60.8664   90.1799    5.9043 O.2     1  UNL1       -0.2737
     19 N          58.9178   89.7415    7.5658 N.am    1  UNL1       -0.2959
     20 H          57.9809   89.8774    7.8362 H       1  UNL1        0.1499
     21 C          58.5329   91.2399    5.4786 C.3     1  UNL1        0.1316
     22 C          57.1334   90.7856    5.1868 C.3     1  UNL1        0.0270
     23 C          59.7682   92.5835    3.6296 C.3     1  UNL1        0.0862
     24 N          59.0262   92.5471    4.9328 N.3     1  UNL1       -0.2902
     25 H          58.2091   93.1476    4.8232 H       1  UNL1        0.1237
     26 C          64.0588   83.7011   11.4038 C.1     1  UNL1        0.1005
     27 N          64.7913   82.4108   11.6239 N.1     1  UNL1       -0.1908
     28 C          61.5206   89.8127   11.8909 C.3     1  UNL1        0.1245
     29 C          62.7827   90.6231   11.9118 C.ar    1  UNL1       -0.0059
     30 C          63.2912   91.2517   10.6483 C.ar    1  UNL1       -0.0242
     31 C          63.0342   91.2648    9.8939 C.3     1  UNL1        0.0308
     32 C          64.5533   92.0621   10.6691 C.ar    1  UNL1       -0.0045
     33 C          65.3068   92.2439   11.9534 C.ar    1  UNL1       -0.0003
     34 C          64.7982   91.6153   13.2168 C.ar    1  UNL1       -0.0003
     35 C          65.5517   91.7971   14.5010 C.ar    1  UNL1       -0.0000
     36 C          65.0430   91.1685   15.7644 C.ar    1  UNL1       -0.0000
     37 C          63.7809   90.3581   15.7436 C.ar    1  UNL1       -0.0000
     38 C          63.0275   90.1763   14.4593 C.ar    1  UNL1       -0.0003
     39 C          63.5361   90.8049   13.1960 C.ar    1  UNL1       -0.0027
@<TRIPOS>BOND
     1    23    24    1
     2    24    21    1
     3    21    22    1
     4    21    17    1
     5    17    18    2
     6    17    19   am
     7     1    19    1
     8     1     2    1
     9     2     3    2
    10     2     4   am
    11     4    28    1
    12    28    29    1
    13    29    30   ar
    14    30    31    1
    15    30    32   ar
    16    32    33   ar
    17    33    34   ar
    18    34    35   ar
    19    35    36   ar
    20    36    37   ar
    21    37    38   ar
    22    38    39   ar
    23     4     5    1
    24     5     6   ar
    25     6     7   ar
    26     7     8   ar
    27     8    26    1
    28    26    27    3
    29     8     9   ar
    30     9    10   ar
    31    10    11    1
    32    11    12   am
    33    12    13    1
    34    12    14    2
    35    11    15    1
    36    15    16    1
    37    15     1    1
    38    39    29   ar
    39    10     5   ar
    40    39    34   ar
    41    24    25    1
    42    19    20    1
@<TRIPOS>MOLECULE
*****
 39 42 0 0 0
SMALL
GASTEIGER

@<TRIPOS>ATOM
      1 C          63.0986   86.1098   11.7651 C.3     1  UNL1        0.1678
      2 C          62.9569   87.4940   12.3254 C.2     1  UNL1        0.2492
      3 O          63.6241   87.7325   13.6474 O.2     1  UNL1       -0.2727
      4 N          62.2361   88.6712   11.7383 N.am    1  UNL1       -0.2518
      5 C          61.4791   88.7551   10.4461 C.ar    1  UNL1        0.0679
      6 C          60.9064   90.1252   10.2344 C.ar    1  UNL1        0.0169
      7 C          60.1104   90.4225    8.9983 C.ar    1  UNL1        0.0116
      8 C          59.8872   89.3498    7.9738 C.ar    1  UNL1        0.0698
      9 C          60.4599   87.9797    8.1855 C.ar    1  UNL1        0.0264
     10 C          61.2559   87.6824    9.4216 C.ar    1  UNL1        0.0682
     11 N          61.7346   86.2609    9.4365 N.am    1  UNL1       -0.2570
     12 C          61.3411   85.4293    8.2518 C.2     1  UNL1        0.2299
     13 C          60.5201   86.0330    7.1510 C.3     1  UNL1        0.0952
     14 O          61.7685   83.9939    8.1678 O.2     1  UNL1       -0.2745
     15 C          62.5547   85.5609   10.4794 C.3     1  UNL1        0.1066
     16 C          62.8728   84.1221   10.1997 C.3     1  UNL1        0.0242
     17 C          63.2310   84.4293   13.7420 C.2     1  UNL1        0.2371
     18 O          61.7829   84.6741   14.0471 O.2     1  UNL1       -0.2737
     19 N          63.8889   85.1471   12.6010 N.am    1  UNL1       -0.2959
     20 H          64.8393   84.9864   12.4007 H       1  UNL1        0.1499
     21 C          64.0213   83.4666   14.5779 C.3     1  UNL1        0.1316
     22 C          65.1985   83.9525   15.3705 C.3     1  UNL1        0.0270
     23 C          63.4916   81.2414   13.3459 C.3     1  UNL1        0.0862
     24 N          63.6344   82.0180   14.6212 N.3     1  UNL1       -0.2902
     25 H          64.3425   81.5407   15.1790 H       1  UNL1        0.1237
     26 C          59.0912   89.6472    6.7377 C.1     1  UNL1        0.1005
     27 N          58.2952   89.9445    5.5016 N.1     1  UNL1       -0.1908
     28 C          62.2779   89.9313   12.5510 C.3     1  UNL1        0.1245
     29 C          63.4538   90.8561   12.4411 C.ar    1  UNL1       -0.0059
     30 C          63.9151   91.3257   11.0933 C.ar    1  UNL1       -0.0242
     31 C          63.6682   91.1946   10.3467 C.3     1  UNL1        0.0308
     32 C          65.0910   92.2505   10.9833 C.ar    1  UNL1       -0.0045
     33 C          65.8056   92.7057   12.2211 C.ar    1  UNL1       -0.0003
     34 C          65.3442   92.2360   13.5690 C.ar    1  UNL1       -0.0003
     35 C          66.0588   92.6912   14.8069 C.ar    1  UNL1       -0.0000
     36 C          65.5974   92.2215   16.1546 C.ar    1  UNL1       -0.0000
     37 C          64.4215   91.2967   16.2646 C.ar    1  UNL1       -0.0000
     38 C          63.7070   90.8416   15.0267 C.ar    1  UNL1       -0.0003
     39 C          64.1683   91.3112   13.6790 C.ar    1  UNL1       -0.0027
@<TRIPOS>BOND
     1    23    24    1
     2    24    21    1
     3    21    22    1
     4    21    17    1
     5    17    18    2
     6    17    19   am
     7     1    19    1
     8     1     2    1
     9     2     3    2
    10     2     4   am
    11     4    28    1
    12    28    29    1
    13    29    30   ar
    14    30    31    1
    15    30    32   ar
    16    32    33   ar
    17    33    34   ar
    18    34    35   ar
    19    35    36   ar
    20    36    37   ar
    21    37    38   ar
    22    38    39   ar
    23     4     5    1
    24     5     6   ar
    25     6     7   ar
    26     7     8   ar
    27     8    26    1
    28    26    27    3
    29     8     9   ar
    30     9    10   ar
    31    10    11    1
    32    11    12   am
    33    12    13    1
    34    12    14    2
    35    11    15    1
    36    15    16    1
    37    15     1    1
    38    39    29   ar
    39    10     5   ar
    40    39    34   ar
    41    24    25    1
    42    19    20    1
@<TRIPOS>MOLECULE
*****
 39 42 0 0 0
SMALL
GASTEIGER

@<TRIPOS>ATOM
      1 C          63.1424   85.9006   12.0227 C.3     1  UNL1        0.1678
      2 C          62.8834   87.2201   12.6876 C.2     1  UNL1        0.2492
      3 O          63.4346   87.3692   14.0746 O.2     1  UNL1       -0.2727
      4 N          62.1463   88.4101   12.1487 N.am    1  UNL1       -0.2518
      5 C          61.4859   88.5747   10.8119 C.ar    1  UNL1        0.0679
      6 C          60.8571   89.9295   10.6744 C.ar    1  UNL1        0.0169
      7 C          60.1422   90.2995    9.4087 C.ar    1  UNL1        0.0116
      8 C          60.0560   89.3146    8.2807 C.ar    1  UNL1        0.0698
      9 C          60.6847   87.9597    8.4182 C.ar    1  UNL1        0.0264
     10 C          61.3997   87.5898    9.6838 C.ar    1  UNL1        0.0682
     11 N          61.9525   86.1971    9.6140 N.am    1  UNL1       -0.2570
     12 C          61.6958   85.4585    8.3339 C.2     1  UNL1        0.2299
     13 C          60.9290   86.1198    7.2271 C.3     1  UNL1        0.0952
     14 O          62.2059   84.0586    8.1605 O.2     1  UNL1       -0.2745
     15 C          62.7281   85.4453   10.6548 C.3     1  UNL1        0.1066
     16 C          63.1444   84.0544   10.2779 C.3     1  UNL1        0.0242
     17 C          63.2291   84.1053   13.8986 C.2     1  UNL1        0.2371
     18 O          61.7641   84.3016   14.1543 O.2     1  UNL1       -0.2737
     19 N          63.9182   84.9048   12.8328 N.am    1  UNL1       -0.2959
     20 H          64.8797   84.7759   12.6650 H       1  UNL1        0.1499
     21 C          64.0049   83.1094   14.7088 C.3     1  UNL1        0.1316
     22 C          65.0270   83.5822   15.6997 C.3     1  UNL1        0.0270
     23 C          63.3567   81.1075   13.1849 C.3     1  UNL1        0.0862
     24 N          63.7587   81.6409   14.5280 N.3     1  UNL1       -0.2902
     25 H          64.6217   81.1634   14.7881 H       1  UNL1        0.1237
     26 C          59.3409   89.6846    7.0150 C.1     1  UNL1        0.1005
     27 N          58.6259   90.0546    5.7494 N.1     1  UNL1       -0.1908
     28 C          62.0577   89.5919   13.0682 C.3     1  UNL1        0.1245
     29 C          63.3066   90.3019   13.4995 C.ar    1  UNL1       -0.0059
     30 C          63.7817   90.1889   14.9178 C.ar    1  UNL1       -0.0242
     31 C          63.5108   89.8088   15.5640 C.3     1  UNL1        0.0308
     32 C          65.0307   90.8989   15.3492 C.ar    1  UNL1       -0.0045
     33 C          65.8044   91.7219   14.3623 C.ar    1  UNL1       -0.0003
     34 C          65.3293   91.8350   12.9440 C.ar    1  UNL1       -0.0003
     35 C          66.1030   92.6580   11.9572 C.ar    1  UNL1       -0.0000
     36 C          65.6278   92.7710   10.5390 C.ar    1  UNL1       -0.0000
     37 C          64.3789   92.0610   10.1075 C.ar    1  UNL1       -0.0000
     38 C          63.6052   91.2380   11.0945 C.ar    1  UNL1       -0.0003
     39 C          64.0803   91.1250   12.5126 C.ar    1  UNL1       -0.0027
@<TRIPOS>BOND
     1    23    24    1
     2    24    21    1
     3    21    22    1
     4    21    17    1
     5    17    18    2
     6    17    19   am
     7     1    19    1
     8     1     2    1
     9     2     3    2
    10     2     4   am
    11     4    28    1
    12    28    29    1
    13    29    30   ar
    14    30    31    1
    15    30    32   ar
    16    32    33   ar
    17    33    34   ar
    18    34    35   ar
    19    35    36   ar
    20    36    37   ar
    21    37    38   ar
    22    38    39   ar
    23     4     5    1
    24     5     6   ar
    25     6     7   ar
    26     7     8   ar
    27     8    26    1
    28    26    27    3
    29     8     9   ar
    30     9    10   ar
    31    10    11    1
    32    11    12   am
    33    12    13    1
    34    12    14    2
    35    11    15    1
    36    15    16    1
    37    15     1    1
    38    39    29   ar
    39    10     5   ar
    40    39    34   ar
    41    24    25    1
    42    19    20    1
@<TRIPOS>MOLECULE
*****
 39 42 0 0 0
SMALL
GASTEIGER

@<TRIPOS>ATOM
      1 C          61.8913   86.9478   10.6594 C.3     1  UNL1        0.1678
      2 C          62.5273   86.0200   11.6517 C.2     1  UNL1        0.2492
      3 O          62.2861   84.5574   11.4226 O.2     1  UNL1       -0.2727
      4 N          63.3725   86.3615   12.8429 N.am    1  UNL1       -0.2518
      5 C          63.7906   87.7150   13.3360 C.ar    1  UNL1        0.0679
      6 C          64.6394   87.6113   14.5684 C.ar    1  UNL1        0.0169
      7 C          65.1642   88.8539   15.2244 C.ar    1  UNL1        0.0116
      8 C          64.8402   90.2003   14.6480 C.ar    1  UNL1        0.0698
      9 C          63.9915   90.3041   13.4156 C.ar    1  UNL1        0.0264
     10 C          63.4666   89.0615   12.7596 C.ar    1  UNL1        0.0682
     11 N          62.6446   89.3868   11.5478 N.am    1  UNL1       -0.2570
     12 C          62.5053   90.8458   11.2285 C.2     1  UNL1        0.2299
     13 C          63.1676   91.8711   12.1005 C.3     1  UNL1        0.0952
     14 O          61.7036   91.2796   10.0372 O.2     1  UNL1       -0.2745
     15 C          61.9435   88.4462   10.6131 C.3     1  UNL1        0.1066
     16 C          61.1958   89.0889    9.4828 C.3     1  UNL1        0.0242
     17 C          61.7850   85.8202    8.3212 C.2     1  UNL1        0.2371
     18 O          63.2649   86.0077    8.1635 O.2     1  UNL1       -0.2737
     19 N          61.0982   86.2903    9.5691 N.am    1  UNL1       -0.2959
     20 H          60.1270   86.1673    9.6726 H       1  UNL1        0.1499
     21 C          60.9920   85.1627    7.2309 C.3     1  UNL1        0.1316
     22 C          61.6781   84.2747    6.2355 C.3     1  UNL1        0.0270
     23 C          58.9333   86.7187    7.5325 C.3     1  UNL1        0.0862
     24 N          59.5128   85.3932    7.1360 N.3     1  UNL1       -0.2902
     25 H          59.2525   85.2375    6.1621 H       1  UNL1        0.1237
     26 C          65.3651   91.4430   15.3041 C.1     1  UNL1        0.1005
     27 N          65.8899   92.6856   15.9602 N.1     1  UNL1       -0.1908
     28 C          63.8648   85.1951   13.6475 C.3     1  UNL1        0.1245
     29 C          63.1326   83.8869   13.5973 C.ar    1  UNL1       -0.0059
     30 C          62.1735   83.5219   14.6913 C.ar    1  UNL1       -0.0242
     31 C          61.9309   83.8840   15.3588 C.3     1  UNL1        0.0308
     32 C          61.4414   82.2137   14.6413 C.ar    1  UNL1       -0.0045
     33 C          61.6683   81.2705   13.4972 C.ar    1  UNL1       -0.0003
     34 C          62.6275   81.6355   12.4032 C.ar    1  UNL1       -0.0003
     35 C          62.8545   80.6923   11.2591 C.ar    1  UNL1       -0.0000
     36 C          63.8136   81.0574   10.1652 C.ar    1  UNL1       -0.0000
     37 C          64.5458   82.3656   10.2153 C.ar    1  UNL1       -0.0000
     38 C          64.3188   83.3087   11.3593 C.ar    1  UNL1       -0.0003
     39 C          63.3597   82.9437   12.4532 C.ar    1  UNL1       -0.0027
@<TRIPOS>BOND
     1    23    24    1
     2    24    21    1
     3    21    22    1
     4    21    17    1
     5    17    18    2
     6    17    19   am
     7     1    19    1
     8     1     2    1
     9     2     3    2
    10     2     4   am
    11     4    28    1
    12    28    29    1
    13    29    30   ar
    14    30    31    1
    15    30    32   ar
    16    32    33   ar
    17    33    34   ar
    18    34    35   ar
    19    35    36   ar
    20    36    37   ar
    21    37    38   ar
    22    38    39   ar
    23     4     5    1
    24     5     6   ar
    25     6     7   ar
    26     7     8   ar
    27     8    26    1
    28    26    27    3
    29     8     9   ar
    30     9    10   ar
    31    10    11    1
    32    11    12   am
    33    12    13    1
    34    12    14    2
    35    11    15    1
    36    15    16    1
    37    15     1    1
    38    39    29   ar
    39    10     5   ar
    40    39    34   ar
    41    24    25    1
    42    19    20    1
@<TRIPOS>MOLECULE
*****
 39 42 0 0 0
SMALL
GASTEIGER

@<TRIPOS>ATOM
      1 C          61.7888   89.0364    9.4795 C.3     1  UNL1        0.1678
      2 C          62.2171   90.0185   10.5293 C.2     1  UNL1        0.2492
      3 O          62.0069   91.4648   10.1920 O.2     1  UNL1       -0.2727
      4 N          62.8278   89.7453   11.8718 N.am    1  UNL1       -0.2518
      5 C          63.1611   88.4228   12.4962 C.ar    1  UNL1        0.0679
      6 C          63.7626   88.5963   13.8592 C.ar    1  UNL1        0.0169
      7 C          64.1690   87.3936   14.6583 C.ar    1  UNL1        0.0116
      8 C          63.9738   86.0175   14.0942 C.ar    1  UNL1        0.0698
      9 C          63.3723   85.8440   12.7311 C.ar    1  UNL1        0.0264
     10 C          62.9659   87.0466   11.9321 C.ar    1  UNL1        0.0682
     11 N          62.3893   86.6533   10.6044 N.am    1  UNL1       -0.2570
     12 C          62.3285   85.1794   10.3323 C.2     1  UNL1        0.2299
     13 C          62.8270   84.2059   11.3589 C.3     1  UNL1        0.0952
     14 O          61.7692   84.6789    9.0335 O.2     1  UNL1       -0.2745
     15 C          61.8654   87.5387    9.5129 C.3     1  UNL1        0.1066
     16 C          61.3500   86.8333    8.2936 C.3     1  UNL1        0.0242
     17 C          59.8093   89.2797    7.8144 C.2     1  UNL1        0.2371
     18 O          58.9936   88.3346    8.6459 O.2     1  UNL1       -0.2737
     19 N          61.2069   89.6306    8.2311 N.am    1  UNL1       -0.2959
     20 H          61.7422   90.2509    7.6854 H       1  UNL1        0.1499
     21 C          59.2274   89.8739    6.5660 C.3     1  UNL1        0.1316
     22 C          60.1322   90.4481    5.5164 C.3     1  UNL1        0.0270
     23 C          57.1318   90.8187    5.3555 C.3     1  UNL1        0.0862
     24 N          57.7408   89.8940    6.3674 N.3     1  UNL1       -0.2902
     25 H          57.4661   88.9476    6.1043 H       1  UNL1        0.1237
     26 C          64.3802   84.8148   14.8933 C.1     1  UNL1        0.1005
     27 N          64.7865   83.6122   15.6924 N.1     1  UNL1       -0.1908
     28 C          63.1476   90.9547   12.6995 C.3     1  UNL1        0.1245
     29 C          64.4692   91.6459   12.5385 C.ar    1  UNL1       -0.0059
     30 C          64.9821   91.9731   11.1674 C.ar    1  UNL1       -0.0242
     31 C          64.7015   91.8612   10.4298 C.3     1  UNL1        0.0308
     32 C          66.3037   92.6642   11.0063 C.ar    1  UNL1       -0.0045
     33 C          67.1122   93.0280   12.2162 C.ar    1  UNL1       -0.0003
     34 C          66.5992   92.7007   13.5873 C.ar    1  UNL1       -0.0003
     35 C          67.4078   93.0645   14.7972 C.ar    1  UNL1       -0.0000
     36 C          66.8948   92.7372   16.1682 C.ar    1  UNL1       -0.0000
     37 C          65.5732   92.0461   16.3293 C.ar    1  UNL1       -0.0000
     38 C          64.7647   91.6823   15.1194 C.ar    1  UNL1       -0.0003
     39 C          65.2777   92.0096   13.7484 C.ar    1  UNL1       -0.0027
@<TRIPOS>BOND
     1    23    24    1
     2    24    21    1
     3    21    22    1
     4    21    17    1
     5    17    18    2
     6    17    19   am
     7     1    19    1
     8     1     2    1
     9     2     3    2
    10     2     4   am
    11     4    28    1
    12    28    29    1
    13    29    30   ar
    14    30    31    1
    15    30    32   ar
    16    32    33   ar
    17    33    34   ar
    18    34    35   ar
    19    35    36   ar
    20    36    37   ar
    21    37    38   ar
    22    38    39   ar
    23     4     5    1
    24     5     6   ar
    25     6     7   ar
    26     7     8   ar
    27     8    26    1
    28    26    27    3
    29     8     9   ar
    30     9    10   ar
    31    10    11    1
    32    11    12   am
    33    12    13    1
    34    12    14    2
    35    11    15    1
    36    15    16    1
    37    15     1    1
    38    39    29   ar
    39    10     5   ar
    40    39    34   ar
    41    24    25    1
    42    19    20    1
@<TRIPOS>MOLECULE
*****
 39 42 0 0 0
SMALL
GASTEIGER

@<TRIPOS>ATOM
      1 C          63.8483   89.7958   14.2520 C.3     1  UNL1        0.1678
      2 C          63.4837   89.5677   12.8149 C.2     1  UNL1        0.2492
      3 O          62.6749   88.3357   12.5363 O.2     1  UNL1       -0.2727
      4 N          63.8212   90.4089   11.6197 N.am    1  UNL1       -0.2518
      5 C          64.6065   91.6859   11.5663 C.ar    1  UNL1        0.0679
      6 C          64.7121   92.2059   10.1634 C.ar    1  UNL1        0.0169
      7 C          65.4596   93.4771    9.8891 C.ar    1  UNL1        0.0116
      8 C          66.1014   94.2283   11.0178 C.ar    1  UNL1        0.0698
      9 C          65.9957   93.7082   12.4207 C.ar    1  UNL1        0.0264
     10 C          65.2483   92.4370   12.6950 C.ar    1  UNL1        0.0682
     11 N          65.2633   92.0967   14.1558 N.am    1  UNL1       -0.2570
     12 C          65.9986   93.0591   15.0407 C.2     1  UNL1        0.2299
     13 C          66.6585   94.2688   14.4481 C.3     1  UNL1        0.0952
     14 O          66.0740   92.8119   16.5183 O.2     1  UNL1       -0.2745
     15 C          64.6402   90.9212   14.8488 C.3     1  UNL1        0.1066
     16 C          64.8349   90.8637   16.3349 C.3     1  UNL1        0.0242
     17 C          63.9486   87.3837   15.2122 C.2     1  UNL1        0.2371
     18 O          65.0341   87.0401   14.2356 O.2     1  UNL1       -0.2737
     19 N          63.3557   88.7615   15.2204 N.am    1  UNL1       -0.2959
     20 H          62.6432   88.9871   15.8613 H       1  UNL1        0.1499
     21 C          63.4560   86.3495   16.1805 C.3     1  UNL1        0.1316
     22 C          64.0474   84.9710   16.1709 C.3     1  UNL1        0.0270
     23 C          62.6941   86.8324   18.6170 C.3     1  UNL1        0.0862
     24 N          62.3720   86.6937   17.1586 N.3     1  UNL1       -0.2902
     25 H          61.9766   87.5847   16.8583 H       1  UNL1        0.1237
     26 C          66.8489   95.4995   10.7434 C.1     1  UNL1        0.1005
     27 N          67.5963   96.7708   10.4691 N.1     1  UNL1       -0.1908
     28 C          63.3051   89.9068   10.3039 C.3     1  UNL1        0.1245
     29 C          61.9059   89.3761   10.2001 C.ar    1  UNL1       -0.0059
     30 C          60.7560   90.1865   10.7207 C.ar    1  UNL1       -0.0242
     31 C          60.6952   90.8987   11.0736 C.3     1  UNL1        0.0308
     32 C          59.3568   89.6559   10.6170 C.ar    1  UNL1       -0.0045
     33 C          59.1075   88.3150    9.9926 C.ar    1  UNL1       -0.0003
     34 C          60.2575   87.5046    9.4720 C.ar    1  UNL1       -0.0003
     35 C          60.0082   86.1637    8.8477 C.ar    1  UNL1       -0.0000
     36 C          61.1582   85.3534    8.3271 C.ar    1  UNL1       -0.0000
     37 C          62.5574   85.8840    8.4308 C.ar    1  UNL1       -0.0000
     38 C          62.8066   87.2249    9.0552 C.ar    1  UNL1       -0.0003
     39 C          61.6567   88.0352    9.5757 C.ar    1  UNL1       -0.0027
@<TRIPOS>BOND
     1    23    24    1
     2    24    21    1
     3    21    22    1
     4    21    17    1
     5    17    18    2
     6    17    19   am
     7     1    19    1
     8     1     2    1
     9     2     3    2
    10     2     4   am
    11     4    28    1
    12    28    29    1
    13    29    30   ar
    14    30    31    1
    15    30    32   ar
    16    32    33   ar
    17    33    34   ar
    18    34    35   ar
    19    35    36   ar
    20    36    37   ar
    21    37    38   ar
    22    38    39   ar
    23     4     5    1
    24     5     6   ar
    25     6     7   ar
    26     7     8   ar
    27     8    26    1
    28    26    27    3
    29     8     9   ar
    30     9    10   ar
    31    10    11    1
    32    11    12   am
    33    12    13    1
    34    12    14    2
    35    11    15    1
    36    15    16    1
    37    15     1    1
    38    39    29   ar
    39    10     5   ar
    40    39    34   ar
    41    24    25    1
    42    19    20    1
