@<TRIPOS>MOLECULE
*****
 45 50 0 0 0
SMALL
GASTEIGER

@<TRIPOS>ATOM
      1 C          62.4861   87.6563   10.9529 C.3     1  UNL1        0.1607
      2 C          63.3277   88.0417   12.1332 C.2     1  UNL1        0.2689
      3 O          63.8069   87.1181   13.2136 O.2     1  UNL1       -0.2708
      4 N          63.6058   89.5130   12.0434 N.am    1  UNL1       -0.1349
      5 C          62.9362   90.0368   10.8077 C.ar    1  UNL1        0.0746
      6 C          62.8672   91.4104   10.2091 C.ar    1  UNL1        0.0171
      7 C          62.1061   91.6366    8.9365 C.ar    1  UNL1        0.0116
      8 C          61.4140   90.4891    8.2624 C.ar    1  UNL1        0.0683
      9 C          61.4830   89.1154    8.8610 C.ar    1  UNL1        0.0093
     10 C          62.2441   88.8893   10.1337 C.ar    1  UNL1        0.0191
     11 C          60.1617   87.0198    9.9822 C.ar    1  UNL1        0.2234
     12 N          59.3345   86.3472    8.9269 N.ar    1  UNL1       -0.2003
     13 C          60.0046   85.6384    7.7873 C.ar    1  UNL1        0.1414
     14 CL         59.1774   84.9658    6.7322 Cl      1  UNL1       -0.0612
     15 C          61.5018   85.6023    7.7029 C.ar    1  UNL1        0.0308
     16 C          62.3289   86.2749    8.7580 C.ar    1  UNL1        0.0048
     17 C          61.6589   86.9837    9.8977 C.ar    1  UNL1        0.0562
     18 O          59.4918   87.7285   11.1218 O.3     1  UNL1       -0.4604
     19 C          59.4692   90.1609   12.0346 C.3     1  UNL1        0.0512
     20 C          59.0891   89.1663   10.9780 C.3     1  UNL1        0.2072
     21 N          62.5551   86.2826   11.5515 N.3     1  UNL1       -0.2582
     22 C          61.9673   86.0250   12.9073 C.3     1  UNL1        0.0946
     23 C          62.0363   84.6514   13.5060 C.3     1  UNL1        0.1081
     24 N          62.6931   83.5355   12.7489 N.pl3   1  UNL1       -0.3046
     25 C          63.2810   83.7931   11.3931 C.3     1  UNL1        0.1081
     26 C          63.2119   85.1667   10.7945 C.3     1  UNL1        0.0946
     27 C          62.7622   82.1618   13.3475 C.ar    1  UNL1        0.0510
     28 C          64.0935   81.5490   13.6671 C.ar    1  UNL1        0.0352
     29 C          64.1626   80.1754   14.2657 C.ar    1  UNL1        0.1002
     30 N          62.9003   79.4145   14.5448 N.ar    1  UNL1       -0.2422
     31 C          61.5690   80.0273   14.2253 C.ar    1  UNL1        0.1002
     32 C          61.5000   81.4010   13.6266 C.ar    1  UNL1        0.0352
     33 S          64.4121   90.3189   13.0183 S.O2    1  UNL1        0.0990
     34 O          63.8314   89.5278   14.1527 O.2     1  UNL1       -0.1479
     35 O          64.9929   91.1100   11.8839 O.2     1  UNL1       -0.1479
     36 C          65.2185   91.1249   13.9931 C.ar    1  UNL1        0.2068
     37 C          66.6182   91.5385   13.6475 C.ar    1  UNL1        0.0430
     38 C          67.4245   92.3445   14.6223 C.ar    1  UNL1        0.0415
     39 C          66.8310   92.7369   15.9429 C.ar    1  UNL1        0.1579
     40 C          65.4312   92.3232   16.2885 C.ar    1  UNL1        0.1372
     41 N          64.6249   91.5173   15.3137 N.ar    1  UNL1       -0.2210
     42 O          67.6373   93.5428   16.9176 O.3     1  UNL1       -0.4699
     43 C          68.9077   94.2051   16.4734 C.3     1  UNL1        0.2525
     44 C          60.6529   90.7152    6.9898 C.1     1  UNL1        0.1004
     45 N          59.8919   90.9415    5.7171 N.1     1  UNL1       -0.1908
@<TRIPOS>BOND
     1    19    20    1
     2    20    18    1
     3    18    11    1
     4    11    12   ar
     5    12    13   ar
     6    13    14    1
     7    13    15   ar
     8    15    16   ar
     9    16    17   ar
    10    17     1    1
    11     1    21    1
    12    21    22    1
    13    22    23    1
    14    23    24    1
    15    24    27    1
    16    27    28   ar
    17    28    29   ar
    18    29    30   ar
    19    30    31   ar
    20    31    32   ar
    21    24    25    1
    22    25    26    1
    23     1     2    1
    24     2     3    2
    25     2     4   am
    26     4    33    1
    27    33    34    2
    28    33    35    2
    29    33    36    1
    30    36    37   ar
    31    37    38   ar
    32    38    39   ar
    33    39    42    1
    34    42    43    1
    35    39    40   ar
    36    40    41   ar
    37     4     5    1
    38     5     6   ar
    39     6     7   ar
    40     7     8   ar
    41     8    44    1
    42    44    45    3
    43     8     9   ar
    44     9    10   ar
    45    17    11   ar
    46    10     1    1
    47    26    21    1
    48    41    36   ar
    49    10     5   ar
    50    32    27   ar
