@<TRIPOS>MOLECULE
*****
 36 40 0 0 0
SMALL
GASTEIGER

@<TRIPOS>ATOM
      1 C          62.9473   88.8501   11.6579 C.ar    1  UNL1        0.1074
      2 C          62.1744   89.5503   10.5799 C.ar    1  UNL1        0.0588
      3 S          62.5921   90.9910   10.5714 S.2     1  UNL1       -0.0508
      4 C          63.6231   91.1810   11.6442 C.ar    1  UNL1        0.1646
      5 N          63.8426   89.8578   12.3157 N.ar    1  UNL1       -0.2224
      6 C          63.4156   85.4247   13.6068 C.ar    1  UNL1        0.2416
      7 N          63.5198   86.8778   13.2494 N.ar    1  UNL1       -0.2089
      8 C          62.8431   87.3970   12.0154 C.ar    1  UNL1        0.1026
      9 C          62.0622   86.4631   11.1390 C.ar    1  UNL1        0.0224
     10 C          61.9581   85.0100   11.4965 C.ar    1  UNL1        0.0239
     11 C          62.6348   84.4909   12.7304 C.ar    1  UNL1        0.1189
     12 N          62.5306   83.0378   13.0879 N.ar    1  UNL1       -0.2826
     13 C          62.2604   82.4834   14.4553 C.ar    1  UNL1        0.1826
     14 N          62.2412   80.9871   14.3533 N.ar    1  UNL1       -0.2280
     15 C          62.4994   80.6166   12.9228 C.ar    1  UNL1        0.0786
     16 C          62.5669   79.2233   12.3713 C.3     1  UNL1        0.0538
     17 C          62.6783   81.8841   12.1408 C.ar    1  UNL1        0.0963
     18 C          63.9063   85.6111   16.1513 C.3     1  UNL1        0.2543
     19 O          64.0923   84.9056   14.8407 O.3     1  UNL1       -0.4551
     20 N          64.3134   92.4683   11.9857 N.pl3   1  UNL1       -0.2786
     21 H          63.8276   93.3216   11.9136 H       1  UNL1        0.1555
     22 C          65.7439   92.4555   12.4369 C.ar    1  UNL1        0.1276
     23 C          66.2195   92.4351   13.8593 C.ar    1  UNL1        0.0244
     24 C          67.7194   92.4278   13.8465 C.ar    1  UNL1        0.0773
     25 N          68.1708   92.4437   12.4161 N.ar    1  UNL1       -0.1728
     26 N          66.9498   92.4608   11.5449 N.ar    1  UNL1       -0.2359
     27 C          68.4804   92.4076   15.1389 C.3     1  UNL1        0.0474
     28 C          67.7415   92.3947   16.4442 C.3     1  UNL1        0.0067
     29 C          66.2416   92.4020   16.4570 C.3     1  UNL1        0.0052
     30 C          65.4806   92.4222   15.1646 C.3     1  UNL1        0.0305
     31 C          66.9371   92.4799   10.0451 C.3     1  UNL1        0.1555
     32 C          67.6411   93.5770    9.3029 C.3     1  UNL1        0.1110
     33 C          66.5844   94.5489    9.7372 C.3     1  UNL1        0.0314
     34 C          68.6979   92.6050    8.8687 C.3     1  UNL1        0.0314
     35 O          68.3452   94.6741    8.5608 O.3     1  UNL1       -0.3848
     36 H          67.8527   95.5031    8.6656 H       1  UNL1        0.2103
@<TRIPOS>BOND
     1    18    19    1
     2    19     6    1
     3     6     7   ar
     4     7     8   ar
     5     8     1    1
     6     1     2   ar
     7     2     3   ar
     8     3     4   ar
     9     4    20    1
    10    20    22    1
    11    22    23   ar
    12    23    24   ar
    13    24    25   ar
    14    25    26   ar
    15    26    31    1
    16    31    32    1
    17    32    33    1
    18    32    34    1
    19    32    35    1
    20    24    27    1
    21    27    28    1
    22    28    29    1
    23    29    30    1
    24     4     5   ar
    25     8     9   ar
    26     9    10   ar
    27    10    11   ar
    28    11    12    1
    29    12    13   ar
    30    13    14   ar
    31    14    15   ar
    32    15    16    1
    33    15    17   ar
    34    11     6   ar
    35    17    12   ar
    36     5     1   ar
    37    26    22   ar
    38    30    23    1
    39    20    21    1
    40    35    36    1
@<TRIPOS>MOLECULE
*****
 36 40 0 0 0
SMALL
GASTEIGER

@<TRIPOS>ATOM
      1 C          63.5064   87.3441   15.2199 C.ar    1  UNL1        0.1074
      2 C          63.0769   87.7710   16.5922 C.ar    1  UNL1        0.0588
      3 S          63.4080   89.2254   16.7500 S.2     1  UNL1       -0.0508
      4 C          64.0422   89.6974   15.4752 C.ar    1  UNL1        0.1646
      5 N          64.1030   88.5346   14.5296 N.ar    1  UNL1       -0.2224
      6 C          62.9713   84.4197   12.5909 C.ar    1  UNL1        0.2416
      7 N          63.1134   85.7957   13.1709 N.ar    1  UNL1       -0.2089
      8 C          63.3643   85.9682   14.6398 C.ar    1  UNL1        0.1026
      9 C          63.4730   84.7646   15.5285 C.ar    1  UNL1        0.0224
     10 C          63.3309   83.3886   14.9483 C.ar    1  UNL1        0.0239
     11 C          63.0800   83.2162   13.4795 C.ar    1  UNL1        0.1189
     12 N          62.9379   81.8403   12.8994 N.ar    1  UNL1       -0.2826
     13 C          62.6396   80.5863   13.6668 C.ar    1  UNL1        0.1826
     14 N          62.5865   79.4478   12.6917 N.ar    1  UNL1       -0.2280
     15 C          62.8519   79.9979   11.3216 C.ar    1  UNL1        0.0786
     16 C          62.8929   79.2081   10.0471 C.3     1  UNL1        0.0538
     17 C          63.0691   81.4766   11.4501 C.ar    1  UNL1        0.0963
     18 C          62.2128   85.4000   10.3075 C.3     1  UNL1        0.2543
     19 O          62.7205   84.2473   11.1221 O.3     1  UNL1       -0.4551
     20 N          64.5300   91.0880   15.1952 N.pl3   1  UNL1       -0.2786
     21 H          64.7644   91.6869   15.9407 H       1  UNL1        0.1555
     22 C          64.6606   91.5662   13.7795 C.ar    1  UNL1        0.1276
     23 C          63.8091   91.1366   12.6217 C.ar    1  UNL1        0.0244
     24 C          64.2878   91.8627   11.3997 C.ar    1  UNL1        0.0773
     25 N          65.4351   92.7412   11.8022 N.ar    1  UNL1       -0.1728
     26 N          65.6655   92.5579   13.2730 N.ar    1  UNL1       -0.2359
     27 C          63.6172   91.6303   10.0783 C.3     1  UNL1        0.0474
     28 C          62.4678   90.6717    9.9789 C.3     1  UNL1        0.0067
     29 C          61.9891   89.9455   11.2010 C.3     1  UNL1        0.0052
     30 C          62.6597   90.1779   12.5224 C.3     1  UNL1        0.0305
     31 C          66.7164   93.2456   14.0933 C.3     1  UNL1        0.1555
     32 C          67.7581   92.4370   14.8081 C.3     1  UNL1        0.1110
     33 C          67.3107   93.0177   16.1168 C.3     1  UNL1        0.0314
     34 C          68.2055   91.8564   13.4994 C.3     1  UNL1        0.0314
     35 O          68.7998   91.6285   15.5230 O.3     1  UNL1       -0.3848
     36 H          68.7516   91.8082   16.4750 H       1  UNL1        0.2103
@<TRIPOS>BOND
     1    18    19    1
     2    19     6    1
     3     6     7   ar
     4     7     8   ar
     5     8     1    1
     6     1     2   ar
     7     2     3   ar
     8     3     4   ar
     9     4    20    1
    10    20    22    1
    11    22    23   ar
    12    23    24   ar
    13    24    25   ar
    14    25    26   ar
    15    26    31    1
    16    31    32    1
    17    32    33    1
    18    32    34    1
    19    32    35    1
    20    24    27    1
    21    27    28    1
    22    28    29    1
    23    29    30    1
    24     4     5   ar
    25     8     9   ar
    26     9    10   ar
    27    10    11   ar
    28    11    12    1
    29    12    13   ar
    30    13    14   ar
    31    14    15   ar
    32    15    16    1
    33    15    17   ar
    34    11     6   ar
    35    17    12   ar
    36     5     1   ar
    37    26    22   ar
    38    30    23    1
    39    20    21    1
    40    35    36    1
@<TRIPOS>MOLECULE
*****
 36 40 0 0 0
SMALL
GASTEIGER

@<TRIPOS>ATOM
      1 C          62.8398   89.8106   12.3913 C.ar    1  UNL1        0.1074
      2 C          61.5118   90.4375   12.0861 C.ar    1  UNL1        0.0588
      3 S          60.6028   89.3656   11.5618 S.2     1  UNL1       -0.0508
      4 C          61.3691   88.0763   11.5430 C.ar    1  UNL1        0.1646
      5 N          62.7517   88.3513   12.0557 N.ar    1  UNL1       -0.2224
      6 C          65.9667   92.2417   12.6419 C.ar    1  UNL1        0.2416
      7 N          64.7619   91.5337   12.0966 N.ar    1  UNL1       -0.2089
      8 C          64.0445   90.5187   12.9365 C.ar    1  UNL1        0.1026
      9 C          64.5320   90.2118   14.3215 C.ar    1  UNL1        0.0224
     10 C          65.7368   90.9200   14.8667 C.ar    1  UNL1        0.0239
     11 C          66.4541   91.9349   14.0268 C.ar    1  UNL1        0.1189
     12 N          67.6588   92.6430   14.5719 N.ar    1  UNL1       -0.2826
     13 C          69.0900   92.2915   14.2918 C.ar    1  UNL1        0.1826
     14 N          69.9596   93.2581   15.0396 N.ar    1  UNL1       -0.2280
     15 C          69.0659   94.2071   15.7821 C.ar    1  UNL1        0.0786
     16 C          69.5154   95.3376   16.6594 C.3     1  UNL1        0.0538
     17 C          67.6440   93.8268   15.4930 C.ar    1  UNL1        0.0963
     18 C          66.2205   94.6832   11.7905 C.3     1  UNL1        0.2543
     19 O          66.6840   93.2567   11.8020 O.3     1  UNL1       -0.4551
     20 N          60.8449   86.7455   11.0909 N.pl3   1  UNL1       -0.2786
     21 H          59.9081   86.4995   11.2678 H       1  UNL1        0.1555
     22 C          61.7479   85.7895   10.3693 C.ar    1  UNL1        0.1276
     23 C          62.5720   84.7074   11.0016 C.ar    1  UNL1        0.0244
     24 C          63.3187   83.9969    9.9118 C.ar    1  UNL1        0.0773
     25 N          62.9561   84.6400    8.6061 N.ar    1  UNL1       -0.1728
     26 N          61.9853   85.7479    8.8888 N.ar    1  UNL1       -0.2359
     27 C          64.2324   82.8562   10.2493 C.3     1  UNL1        0.0474
     28 C          64.3993   82.4260   11.6765 C.3     1  UNL1        0.0067
     29 C          63.6526   83.1364   12.7662 C.3     1  UNL1        0.0052
     30 C          62.7389   84.2771   12.4288 C.3     1  UNL1        0.0305
     31 C          61.3614   86.6550    7.8700 C.3     1  UNL1        0.1555
     32 C          59.8801   86.6151    7.6374 C.3     1  UNL1        0.1110
     33 C          59.7601   88.0153    8.1619 C.3     1  UNL1        0.0314
     34 C          60.0000   85.2150    7.1130 C.3     1  UNL1        0.0314
     35 O          58.3987   86.5754    7.4049 O.3     1  UNL1       -0.3848
     36 H          58.0062   87.4205    7.6745 H       1  UNL1        0.2103
@<TRIPOS>BOND
     1    18    19    1
     2    19     6    1
     3     6     7   ar
     4     7     8   ar
     5     8     1    1
     6     1     2   ar
     7     2     3   ar
     8     3     4   ar
     9     4    20    1
    10    20    22    1
    11    22    23   ar
    12    23    24   ar
    13    24    25   ar
    14    25    26   ar
    15    26    31    1
    16    31    32    1
    17    32    33    1
    18    32    34    1
    19    32    35    1
    20    24    27    1
    21    27    28    1
    22    28    29    1
    23    29    30    1
    24     4     5   ar
    25     8     9   ar
    26     9    10   ar
    27    10    11   ar
    28    11    12    1
    29    12    13   ar
    30    13    14   ar
    31    14    15   ar
    32    15    16    1
    33    15    17   ar
    34    11     6   ar
    35    17    12   ar
    36     5     1   ar
    37    26    22   ar
    38    30    23    1
    39    20    21    1
    40    35    36    1
@<TRIPOS>MOLECULE
*****
 36 40 0 0 0
SMALL
GASTEIGER

@<TRIPOS>ATOM
      1 C          62.6139   88.5960   11.6644 C.ar    1  UNL1        0.1074
      2 C          61.5853   89.4196   10.9476 C.ar    1  UNL1        0.0588
      3 S          61.9548   90.8645   11.1078 S.2     1  UNL1       -0.0508
      4 C          63.2117   90.9339   11.9234 C.ar    1  UNL1        0.1646
      5 N          63.6191   89.5319   12.2674 N.ar    1  UNL1       -0.2224
      6 C          63.2506   84.9366   13.0620 C.ar    1  UNL1        0.2416
      7 N          63.2307   86.4333   12.9654 N.ar    1  UNL1       -0.2089
      8 C          62.6338   87.0993   11.7610 C.ar    1  UNL1        0.1026
      9 C          62.0570   86.2684   10.6534 C.ar    1  UNL1        0.0224
     10 C          62.0769   84.7716   10.7501 C.ar    1  UNL1        0.0239
     11 C          62.6737   84.1057   11.9544 C.ar    1  UNL1        0.1189
     12 N          62.6936   82.6090   12.0511 N.ar    1  UNL1       -0.2826
     13 C          63.1825   81.6636   10.9940 C.ar    1  UNL1        0.1826
     14 N          63.0192   80.2652   11.5113 N.ar    1  UNL1       -0.2280
     15 C          62.4294   80.3462   12.8883 C.ar    1  UNL1        0.0786
     16 C          62.0990   79.1830   13.7757 C.3     1  UNL1        0.0538
     17 C          62.2283   81.7949   13.2218 C.ar    1  UNL1        0.0963
     18 C          63.3612   84.6288   15.6394 C.3     1  UNL1        0.2543
     19 O          63.8474   84.2707   14.2663 O.3     1  UNL1       -0.4551
     20 N          63.9344   92.1857   12.3247 N.pl3   1  UNL1       -0.2786
     21 H          63.4258   92.9714   12.6300 H       1  UNL1        0.1555
     22 C          65.4321   92.2402   12.2608 C.ar    1  UNL1        0.1276
     23 C          66.2466   92.7989   11.1319 C.ar    1  UNL1        0.0244
     24 C          67.6961   92.6497   11.4879 C.ar    1  UNL1        0.0773
     25 N          67.7773   91.9987   12.8369 N.ar    1  UNL1       -0.1728
     26 N          66.3781   91.7457   13.3146 N.ar    1  UNL1       -0.2359
     27 C          68.7546   93.1258   10.5378 C.3     1  UNL1        0.0474
     28 C          68.3637   93.7512    9.2317 C.3     1  UNL1        0.0067
     29 C          66.9142   93.9004    8.8757 C.3     1  UNL1        0.0052
     30 C          65.8557   93.4243    9.8257 C.3     1  UNL1        0.0305
     31 C          65.9926   91.1097   14.6172 C.3     1  UNL1        0.1555
     32 C          65.3855   91.9420   15.7075 C.3     1  UNL1        0.1110
     33 C          66.6305   92.7766   15.7637 C.3     1  UNL1        0.0314
     34 C          64.1404   91.1073   15.6512 C.3     1  UNL1        0.0314
     35 O          64.7783   92.7743   16.7977 O.3     1  UNL1       -0.3848
     36 H          65.4065   93.4626   17.0670 H       1  UNL1        0.2103
@<TRIPOS>BOND
     1    18    19    1
     2    19     6    1
     3     6     7   ar
     4     7     8   ar
     5     8     1    1
     6     1     2   ar
     7     2     3   ar
     8     3     4   ar
     9     4    20    1
    10    20    22    1
    11    22    23   ar
    12    23    24   ar
    13    24    25   ar
    14    25    26   ar
    15    26    31    1
    16    31    32    1
    17    32    33    1
    18    32    34    1
    19    32    35    1
    20    24    27    1
    21    27    28    1
    22    28    29    1
    23    29    30    1
    24     4     5   ar
    25     8     9   ar
    26     9    10   ar
    27    10    11   ar
    28    11    12    1
    29    12    13   ar
    30    13    14   ar
    31    14    15   ar
    32    15    16    1
    33    15    17   ar
    34    11     6   ar
    35    17    12   ar
    36     5     1   ar
    37    26    22   ar
    38    30    23    1
    39    20    21    1
    40    35    36    1
@<TRIPOS>MOLECULE
*****
 36 40 0 0 0
SMALL
GASTEIGER

@<TRIPOS>ATOM
      1 C          63.0544   86.5584   15.7647 C.ar    1  UNL1        0.1074
      2 C          62.9044   86.6928   17.2511 C.ar    1  UNL1        0.0588
      3 S          63.0272   88.1466   17.5997 S.2     1  UNL1       -0.0508
      4 C          63.2530   88.9105   16.3287 C.ar    1  UNL1        0.1646
      5 N          63.2698   87.9290   15.1946 N.ar    1  UNL1       -0.2224
      6 C          62.6066   84.0234   12.7441 C.ar    1  UNL1        0.2416
      7 N          62.6623   85.3038   13.5235 N.ar    1  UNL1       -0.2089
      8 C          62.9986   85.2780   14.9852 C.ar    1  UNL1        0.1026
      9 C          63.2792   83.9719   15.6673 C.ar    1  UNL1        0.0224
     10 C          63.2234   82.6915   14.8877 C.ar    1  UNL1        0.0239
     11 C          62.8871   82.7173   13.4261 C.ar    1  UNL1        0.1189
     12 N          62.8314   81.4370   12.6466 N.ar    1  UNL1       -0.2826
     13 C          62.5263   80.0781   13.2038 C.ar    1  UNL1        0.1826
     14 N          62.5773   79.0920   12.0747 N.ar    1  UNL1       -0.2280
     15 C          62.9139   79.8414   10.8196 C.ar    1  UNL1        0.0786
     16 C          63.0666   79.2461    9.4513 C.3     1  UNL1        0.0538
     17 C          63.0709   81.2908   11.1732 C.ar    1  UNL1        0.0963
     18 C          62.6353   85.2424   10.4499 C.3     1  UNL1        0.2543
     19 O          62.2703   84.0493   11.2825 O.3     1  UNL1       -0.4551
     20 N          63.4309   90.3955   16.2122 N.pl3   1  UNL1       -0.2786
     21 H          63.0486   90.9921   16.8957 H       1  UNL1        0.1555
     22 C          64.1912   90.9713   15.0544 C.ar    1  UNL1        0.1276
     23 C          65.4845   91.7265   15.1371 C.ar    1  UNL1        0.0244
     24 C          65.8843   92.1149   13.7445 C.ar    1  UNL1        0.0773
     25 N          64.8379   91.5997   12.8012 N.ar    1  UNL1       -0.1728
     26 N          63.7915   90.8929   13.6108 N.ar    1  UNL1       -0.2359
     27 C          67.1494   92.8875   13.5153 C.3     1  UNL1        0.0474
     28 C          68.0147   93.2717   14.6787 C.3     1  UNL1        0.0067
     29 C          67.6150   92.8832   16.0713 C.3     1  UNL1        0.0052
     30 C          66.3499   92.1107   16.3005 C.3     1  UNL1        0.0305
     31 C          62.5615   90.2250   13.0714 C.3     1  UNL1        0.1555
     32 C          62.5825   89.6046   11.7059 C.3     1  UNL1        0.1110
     33 C          61.8505   90.7923   11.1550 C.3     1  UNL1        0.0314
     34 C          63.3145   88.4169   12.2569 C.3     1  UNL1        0.0314
     35 O          62.6035   88.9842   10.3404 O.3     1  UNL1       -0.3848
     36 H          62.1617   89.5746    9.7102 H       1  UNL1        0.2103
@<TRIPOS>BOND
     1    18    19    1
     2    19     6    1
     3     6     7   ar
     4     7     8   ar
     5     8     1    1
     6     1     2   ar
     7     2     3   ar
     8     3     4   ar
     9     4    20    1
    10    20    22    1
    11    22    23   ar
    12    23    24   ar
    13    24    25   ar
    14    25    26   ar
    15    26    31    1
    16    31    32    1
    17    32    33    1
    18    32    34    1
    19    32    35    1
    20    24    27    1
    21    27    28    1
    22    28    29    1
    23    29    30    1
    24     4     5   ar
    25     8     9   ar
    26     9    10   ar
    27    10    11   ar
    28    11    12    1
    29    12    13   ar
    30    13    14   ar
    31    14    15   ar
    32    15    16    1
    33    15    17   ar
    34    11     6   ar
    35    17    12   ar
    36     5     1   ar
    37    26    22   ar
    38    30    23    1
    39    20    21    1
    40    35    36    1
