@<TRIPOS>MOLECULE
*****
 27 29 0 0 0
SMALL
GASTEIGER

@<TRIPOS>ATOM
      1 N          63.5896   87.1887   16.0171 N.3     1  UNL1       -0.2725
      2 C          63.0665   88.3096   16.8656 C.3     1  UNL1        0.0748
      3 C          63.1907   89.7281   16.3939 C.3     1  UNL1        0.0485
      4 C          63.8379   90.0256   15.0738 C.3     1  UNL1        0.1096
      5 O          63.4987   91.4178   15.5173 O.3     1  UNL1       -0.3826
      6 C          64.3610   88.9047   14.2254 C.3     1  UNL1        0.0485
      7 C          64.2368   87.4862   14.6971 C.3     1  UNL1        0.0748
      8 H          63.0614   91.3840   16.3825 H       1  UNL1        0.2107
      9 C          64.3673   90.8067   13.9078 C.ar    1  UNL1        0.0019
     10 C          65.6479   91.5765   14.0399 C.ar    1  UNL1       -0.0012
     11 C          66.1772   92.3576   12.8738 C.ar    1  UNL1        0.0111
     12 C          65.4259   92.3688   11.5756 C.ar    1  UNL1        0.0577
     13 CL         65.9552   93.1500   10.4095 Cl      1  UNL1       -0.0822
     14 C          64.1453   91.5990   11.4435 C.ar    1  UNL1        0.0111
     15 C          63.6160   90.8180   12.6095 C.ar    1  UNL1       -0.0012
     16 C          63.4655   85.7701   16.4888 C.3     1  UNL1        0.0726
     17 C          63.9115   84.6439   15.6042 C.3     1  UNL1        0.0254
     18 C          62.9171   83.6294   15.1226 C.3     1  UNL1        0.0706
     19 O          63.5818   81.2791   14.2369 O.2     1  UNL1       -0.2913
     20 C          63.2646   82.7224   13.9795 C.2     1  UNL1        0.1731
     21 C          63.2950   83.2588   12.5790 C.ar    1  UNL1        0.0348
     22 C          64.0841   82.5471   11.5202 C.ar    1  UNL1        0.0051
     23 C          64.1144   83.0835   10.1198 C.ar    1  UNL1        0.0297
     24 C          63.3558   84.3316    9.7780 C.ar    1  UNL1        0.1401
     25 F          63.3862   84.8680    8.3776 F       1  UNL1       -0.2042
     26 C          62.5667   85.0432   10.8367 C.ar    1  UNL1        0.0297
     27 C          62.5363   84.5069   12.2373 C.ar    1  UNL1        0.0051
@<TRIPOS>BOND
     1    19    20    2
     2    20    18    1
     3    18    17    1
     4    17    16    1
     5    16     1    1
     6     1     2    1
     7     2     3    1
     8     3     4    1
     9     4     5    1
    10     4     9    1
    11     9    10   ar
    12    10    11   ar
    13    11    12   ar
    14    12    13    1
    15    12    14   ar
    16    14    15   ar
    17     4     6    1
    18     6     7    1
    19    20    21    1
    20    21    22   ar
    21    22    23   ar
    22    23    24   ar
    23    24    25    1
    24    24    26   ar
    25    26    27   ar
    26     7     1    1
    27    27    21   ar
    28    15     9   ar
    29     5     8    1
@<TRIPOS>MOLECULE
*****
 27 29 0 0 0
SMALL
GASTEIGER

@<TRIPOS>ATOM
      1 N          63.5728   87.4391   16.1045 N.3     1  UNL1       -0.2725
      2 C          63.1086   88.6027   16.9294 C.3     1  UNL1        0.0748
      3 C          63.2878   90.0021   16.4199 C.3     1  UNL1        0.0485
      4 C          63.9312   90.2379   15.0856 C.3     1  UNL1        0.1096
      5 O          63.6573   91.6542   15.4967 O.3     1  UNL1       -0.3826
      6 C          64.3954   89.0743   14.2607 C.3     1  UNL1        0.0485
      7 C          64.2162   87.6749   14.7701 C.3     1  UNL1        0.0748
      8 H          63.2294   91.6612   16.3672 H       1  UNL1        0.2107
      9 C          64.4794   90.9656   13.8941 C.ar    1  UNL1        0.0019
     10 C          65.7637   91.7320   14.0089 C.ar    1  UNL1       -0.0012
     11 C          66.3119   92.4597   12.8172 C.ar    1  UNL1        0.0111
     12 C          65.5758   92.4210   11.5109 C.ar    1  UNL1        0.0577
     13 CL         66.1241   93.1488   10.3192 Cl      1  UNL1       -0.0822
     14 C          64.2915   91.6546   11.3961 C.ar    1  UNL1        0.0111
     15 C          63.7433   90.9269   12.5876 C.ar    1  UNL1       -0.0012
     16 C          63.3937   86.0396   16.6139 C.3     1  UNL1        0.0726
     17 C          63.8814   84.8773   15.8008 C.3     1  UNL1        0.0254
     18 C          62.8993   83.9030   15.2208 C.3     1  UNL1        0.0706
     19 O          62.3589   85.1601   13.0122 O.2     1  UNL1       -0.2913
     20 C          62.6479   83.8819   13.7422 C.2     1  UNL1        0.1731
     21 C          62.6854   82.5827   12.9936 C.ar    1  UNL1        0.0348
     22 C          62.3254   81.3044   13.6912 C.ar    1  UNL1        0.0051
     23 C          62.3629   80.0052   12.9425 C.ar    1  UNL1        0.0297
     24 C          62.7605   79.9841   11.4963 C.ar    1  UNL1        0.1401
     25 F          62.7980   78.6848   10.7477 F       1  UNL1       -0.2042
     26 C          63.1205   81.2622   10.7988 C.ar    1  UNL1        0.0297
     27 C          63.0830   82.5616   11.5474 C.ar    1  UNL1        0.0051
@<TRIPOS>BOND
     1    19    20    2
     2    20    18    1
     3    18    17    1
     4    17    16    1
     5    16     1    1
     6     1     2    1
     7     2     3    1
     8     3     4    1
     9     4     5    1
    10     4     9    1
    11     9    10   ar
    12    10    11   ar
    13    11    12   ar
    14    12    13    1
    15    12    14   ar
    16    14    15   ar
    17     4     6    1
    18     6     7    1
    19    20    21    1
    20    21    22   ar
    21    22    23   ar
    22    23    24   ar
    23    24    25    1
    24    24    26   ar
    25    26    27   ar
    26     7     1    1
    27    27    21   ar
    28    15     9   ar
    29     5     8    1
@<TRIPOS>MOLECULE
*****
 27 29 0 0 0
SMALL
GASTEIGER

@<TRIPOS>ATOM
      1 N          63.5181   88.1657   13.1189 N.3     1  UNL1       -0.2725
      2 C          64.2902   87.9721   14.3902 C.3     1  UNL1        0.0748
      3 C          64.4837   86.5929   14.9474 C.3     1  UNL1        0.0485
      4 C          63.9052   85.4075   14.2332 C.3     1  UNL1        0.1096
      5 O          64.5547   84.7191   15.3970 O.3     1  UNL1       -0.3826
      6 C          63.1332   85.6012   12.9619 C.3     1  UNL1        0.0485
      7 C          62.9396   86.9803   12.4047 C.3     1  UNL1        0.0748
      8 H          64.9830   85.3786   15.9648 H       1  UNL1        0.2107
      9 C          63.5523   83.9829   13.9233 C.ar    1  UNL1        0.0019
     10 C          64.3015   83.2394   12.8575 C.ar    1  UNL1       -0.0012
     11 C          63.9485   81.8148   12.5477 C.ar    1  UNL1        0.0111
     12 C          62.8463   81.1338   13.3035 C.ar    1  UNL1        0.0577
     13 CL         62.4934   79.7092   12.9936 Cl      1  UNL1       -0.0822
     14 C          62.0971   81.8773   14.3693 C.ar    1  UNL1        0.0111
     15 C          62.4501   83.3019   14.6791 C.ar    1  UNL1       -0.0012
     16 C          63.3246   89.5449   12.5616 C.3     1  UNL1        0.0726
     17 C          63.1067   89.7354   11.0898 C.3     1  UNL1        0.0254
     18 C          61.7129   89.8432   10.5457 C.3     1  UNL1        0.0706
     19 O          59.8255   88.5251   11.7499 O.2     1  UNL1       -0.2913
     20 C          60.7897   88.6627   10.6091 C.2     1  UNL1        0.1731
     21 C          60.8306   87.6199    9.5317 C.ar    1  UNL1        0.0348
     22 C          59.6101   87.3500    8.7025 C.ar    1  UNL1        0.0051
     23 C          59.6510   86.3072    7.6251 C.ar    1  UNL1        0.0297
     24 C          60.9123   85.5343    7.3768 C.ar    1  UNL1        0.1401
     25 F          60.9533   84.4915    6.2994 F       1  UNL1       -0.2042
     26 C          62.1328   85.8042    8.2060 C.ar    1  UNL1        0.0297
     27 C          62.0919   86.8471    9.2835 C.ar    1  UNL1        0.0051
@<TRIPOS>BOND
     1    19    20    2
     2    20    18    1
     3    18    17    1
     4    17    16    1
     5    16     1    1
     6     1     2    1
     7     2     3    1
     8     3     4    1
     9     4     5    1
    10     4     9    1
    11     9    10   ar
    12    10    11   ar
    13    11    12   ar
    14    12    13    1
    15    12    14   ar
    16    14    15   ar
    17     4     6    1
    18     6     7    1
    19    20    21    1
    20    21    22   ar
    21    22    23   ar
    22    23    24   ar
    23    24    25    1
    24    24    26   ar
    25    26    27   ar
    26     7     1    1
    27    27    21   ar
    28    15     9   ar
    29     5     8    1
@<TRIPOS>MOLECULE
*****
 27 29 0 0 0
SMALL
GASTEIGER

@<TRIPOS>ATOM
      1 N          63.6388   88.1005   13.2652 N.3     1  UNL1       -0.2725
      2 C          64.3595   87.8132   14.5490 C.3     1  UNL1        0.0748
      3 C          64.5083   86.3986   15.0250 C.3     1  UNL1        0.0485
      4 C          63.9365   85.2713   14.2174 C.3     1  UNL1        0.1096
      5 O          64.5301   84.4994   15.3583 O.3     1  UNL1       -0.3826
      6 C          63.2158   85.5587   12.9336 C.3     1  UNL1        0.0485
      7 C          63.0670   86.9733   12.4576 C.3     1  UNL1        0.0748
      8 H          64.9483   85.1138   15.9815 H       1  UNL1        0.2107
      9 C          63.5709   83.8759   13.8060 C.ar    1  UNL1        0.0019
     10 C          64.1620   83.2814   12.5622 C.ar    1  UNL1       -0.0012
     11 C          63.7963   81.8860   12.1509 C.ar    1  UNL1        0.0111
     12 C          62.8395   81.0852   12.9834 C.ar    1  UNL1        0.0577
     13 CL         62.4738   79.6897   12.5721 Cl      1  UNL1       -0.0822
     14 C          62.2483   81.6797   14.2272 C.ar    1  UNL1        0.0111
     15 C          62.6140   83.0750   14.6385 C.ar    1  UNL1       -0.0012
     16 C          63.4900   89.5152   12.7891 C.3     1  UNL1        0.0726
     17 C          64.3207   90.6039   13.4011 C.3     1  UNL1        0.0254
     18 C          64.6844   91.8141   12.5930 C.3     1  UNL1        0.0706
     19 O          67.0696   91.8612   13.6218 O.2     1  UNL1       -0.2913
     20 C          66.1057   92.2921   12.5563 C.2     1  UNL1        0.1731
     21 C          66.5630   93.2011   11.4543 C.ar    1  UNL1        0.0348
     22 C          67.3439   92.6463   10.2999 C.ar    1  UNL1        0.0051
     23 C          67.8012   93.5553    9.1979 C.ar    1  UNL1        0.0297
     24 C          67.4778   95.0191    9.2501 C.ar    1  UNL1        0.1401
     25 F          67.9351   95.9281    8.1481 F       1  UNL1       -0.2042
     26 C          66.6970   95.5739   10.4045 C.ar    1  UNL1        0.0297
     27 C          66.2396   94.6649   11.5066 C.ar    1  UNL1        0.0051
@<TRIPOS>BOND
     1    19    20    2
     2    20    18    1
     3    18    17    1
     4    17    16    1
     5    16     1    1
     6     1     2    1
     7     2     3    1
     8     3     4    1
     9     4     5    1
    10     4     9    1
    11     9    10   ar
    12    10    11   ar
    13    11    12   ar
    14    12    13    1
    15    12    14   ar
    16    14    15   ar
    17     4     6    1
    18     6     7    1
    19    20    21    1
    20    21    22   ar
    21    22    23   ar
    22    23    24   ar
    23    24    25    1
    24    24    26   ar
    25    26    27   ar
    26     7     1    1
    27    27    21   ar
    28    15     9   ar
    29     5     8    1
@<TRIPOS>MOLECULE
*****
 27 29 0 0 0
SMALL
GASTEIGER

@<TRIPOS>ATOM
      1 N          62.8993   90.4543   11.1781 N.3     1  UNL1       -0.2725
      2 C          62.8031   89.3765   12.2170 C.3     1  UNL1        0.0748
      3 C          63.6873   89.4209   13.4278 C.3     1  UNL1        0.0485
      4 C          64.6678   90.5430   13.5997 C.3     1  UNL1        0.1096
      5 O          64.9455   89.7605   14.8490 O.3     1  UNL1       -0.3826
      6 C          64.7641   91.6207   12.5609 C.3     1  UNL1        0.0485
      7 C          63.8799   91.5763   11.3501 C.3     1  UNL1        0.0748
      8 H          64.3685   88.9813   14.8775 H       1  UNL1        0.2107
      9 C          65.7448   91.3932   14.2057 C.ar    1  UNL1        0.0019
     10 C          67.0041   91.6681   13.4385 C.ar    1  UNL1       -0.0012
     11 C          68.0810   92.5185   14.0445 C.ar    1  UNL1        0.0111
     12 C          67.8986   93.0938   15.4177 C.ar    1  UNL1        0.0577
     13 CL         68.9756   93.9442   16.0236 Cl      1  UNL1       -0.0822
     14 C          66.6393   92.8189   16.1848 C.ar    1  UNL1        0.0111
     15 C          65.5624   91.9687   15.5789 C.ar    1  UNL1       -0.0012
     16 C          62.0151   90.4099    9.9672 C.3     1  UNL1        0.0726
     17 C          60.7671   89.5779    9.9799 C.3     1  UNL1        0.0254
     18 C          60.3091   88.8936    8.7261 C.3     1  UNL1        0.0706
     19 O          58.6825   86.9064    8.3322 O.2     1  UNL1       -0.2913
     20 C          60.0336   87.4192    8.7342 C.2     1  UNL1        0.1731
     21 C          61.1092   86.4575    9.1442 C.ar    1  UNL1        0.0348
     22 C          61.2671   86.0795   10.5873 C.ar    1  UNL1        0.0051
     23 C          62.3427   85.1178   10.9973 C.ar    1  UNL1        0.0297
     24 C          63.2605   84.5341    9.9644 C.ar    1  UNL1        0.1401
     25 F          64.3361   83.5725   10.3744 F       1  UNL1       -0.2042
     26 C          63.1027   84.9121    8.5214 C.ar    1  UNL1        0.0297
     27 C          62.0270   85.8738    8.1113 C.ar    1  UNL1        0.0051
@<TRIPOS>BOND
     1    19    20    2
     2    20    18    1
     3    18    17    1
     4    17    16    1
     5    16     1    1
     6     1     2    1
     7     2     3    1
     8     3     4    1
     9     4     5    1
    10     4     9    1
    11     9    10   ar
    12    10    11   ar
    13    11    12   ar
    14    12    13    1
    15    12    14   ar
    16    14    15   ar
    17     4     6    1
    18     6     7    1
    19    20    21    1
    20    21    22   ar
    21    22    23   ar
    22    23    24   ar
    23    24    25    1
    24    24    26   ar
    25    26    27   ar
    26     7     1    1
    27    27    21   ar
    28    15     9   ar
    29     5     8    1
@<TRIPOS>MOLECULE
*****
 27 29 0 0 0
SMALL
GASTEIGER

@<TRIPOS>ATOM
      1 N          61.8223   89.8998   11.2974 N.3     1  UNL1       -0.2725
      2 C          62.4005   90.6612   10.1416 C.3     1  UNL1        0.0748
      3 C          63.6126   91.5218   10.3416 C.3     1  UNL1        0.0485
      4 C          64.2467   91.6209   11.6974 C.3     1  UNL1        0.1096
      5 O          65.1545   92.5260   10.9184 O.3     1  UNL1       -0.3826
      6 C          63.6685   90.8595   12.8532 C.3     1  UNL1        0.0485
      7 C          62.4564   89.9990   12.6532 C.3     1  UNL1        0.0748
      8 H          64.8600   92.5624    9.9949 H       1  UNL1        0.2107
      9 C          65.1960   92.0345   12.7826 C.ar    1  UNL1        0.0019
     10 C          65.4923   91.0986   13.9168 C.ar    1  UNL1       -0.0012
     11 C          66.4417   91.5123   15.0020 C.ar    1  UNL1        0.0111
     12 C          67.0948   92.8617   14.9529 C.ar    1  UNL1        0.0577
     13 CL         68.0442   93.2753   16.0381 Cl      1  UNL1       -0.0822
     14 C          66.7986   93.7975   13.8187 C.ar    1  UNL1        0.0111
     15 C          65.8492   93.3839   12.7335 C.ar    1  UNL1       -0.0012
     16 C          60.6101   89.0392   11.0975 C.3     1  UNL1        0.0726
     17 C          60.7455   87.6904   10.4554 C.3     1  UNL1        0.0254
     18 C          62.0430   87.2901    9.8177 C.3     1  UNL1        0.0706
     19 O          61.8237   85.5616    7.8905 O.2     1  UNL1       -0.2913
     20 C          62.2239   85.8950    9.2972 C.2     1  UNL1        0.1731
     21 C          62.8049   84.8334   10.1833 C.ar    1  UNL1        0.0348
     22 C          63.7208   83.7944    9.6074 C.ar    1  UNL1        0.0051
     23 C          64.3019   82.7327   10.4936 C.ar    1  UNL1        0.0297
     24 C          63.9670   82.7100   11.9555 C.ar    1  UNL1        0.1401
     25 F          64.5481   81.6484   12.8416 F       1  UNL1       -0.2042
     26 C          63.0512   83.7490   12.5314 C.ar    1  UNL1        0.0297
     27 C          62.4701   84.8107   11.6453 C.ar    1  UNL1        0.0051
@<TRIPOS>BOND
     1    19    20    2
     2    20    18    1
     3    18    17    1
     4    17    16    1
     5    16     1    1
     6     1     2    1
     7     2     3    1
     8     3     4    1
     9     4     5    1
    10     4     9    1
    11     9    10   ar
    12    10    11   ar
    13    11    12   ar
    14    12    13    1
    15    12    14   ar
    16    14    15   ar
    17     4     6    1
    18     6     7    1
    19    20    21    1
    20    21    22   ar
    21    22    23   ar
    22    23    24   ar
    23    24    25    1
    24    24    26   ar
    25    26    27   ar
    26     7     1    1
    27    27    21   ar
    28    15     9   ar
    29     5     8    1
@<TRIPOS>MOLECULE
*****
 27 29 0 0 0
SMALL
GASTEIGER

@<TRIPOS>ATOM
      1 N          63.2591   83.3609   11.9248 N.3     1  UNL1       -0.2725
      2 C          64.0007   83.1299   10.6417 C.3     1  UNL1        0.0748
      3 C          63.7300   84.0017    9.4516 C.3     1  UNL1        0.0485
      4 C          62.7176   85.1046    9.5446 C.3     1  UNL1        0.1096
      5 O          63.1612   85.2775    8.1221 O.3     1  UNL1       -0.3826
      6 C          61.9759   85.3356   10.8277 C.3     1  UNL1        0.0485
      7 C          62.2467   84.4638   12.0179 C.3     1  UNL1        0.0748
      8 H          63.8359   84.6134    7.9109 H       1  UNL1        0.2107
      9 C          61.8593   86.2676    9.1435 C.ar    1  UNL1        0.0019
     10 C          62.1112   87.6240    9.7322 C.ar    1  UNL1       -0.0012
     11 C          61.2528   88.7869    9.3310 C.ar    1  UNL1        0.0111
     12 C          60.1425   88.5933    8.3412 C.ar    1  UNL1        0.0577
     13 CL         59.2841   89.7563    7.9401 Cl      1  UNL1       -0.0822
     14 C          59.8906   87.2368    7.7526 C.ar    1  UNL1        0.0111
     15 C          60.7489   86.0740    8.1537 C.ar    1  UNL1       -0.0012
     16 C          63.5298   82.4890   13.1151 C.3     1  UNL1        0.0726
     17 C          62.7931   82.7243   14.4003 C.3     1  UNL1        0.0254
     18 C          63.4057   83.5785   15.4704 C.3     1  UNL1        0.0706
     19 O          65.5572   84.4345   14.2921 O.2     1  UNL1       -0.2913
     20 C          64.3211   84.7066   15.0971 C.2     1  UNL1        0.1731
     21 C          64.0005   86.1069   15.5289 C.ar    1  UNL1        0.0348
     22 C          64.4171   87.2686   14.6763 C.ar    1  UNL1        0.0051
     23 C          64.0965   88.6689   15.1081 C.ar    1  UNL1        0.0297
     24 C          63.3592   88.9074   16.3924 C.ar    1  UNL1        0.1401
     25 F          63.0386   90.3077   16.8242 F       1  UNL1       -0.2042
     26 C          62.9426   87.7458   17.2450 C.ar    1  UNL1        0.0297
     27 C          63.2632   86.3454   16.8132 C.ar    1  UNL1        0.0051
@<TRIPOS>BOND
     1    19    20    2
     2    20    18    1
     3    18    17    1
     4    17    16    1
     5    16     1    1
     6     1     2    1
     7     2     3    1
     8     3     4    1
     9     4     5    1
    10     4     9    1
    11     9    10   ar
    12    10    11   ar
    13    11    12   ar
    14    12    13    1
    15    12    14   ar
    16    14    15   ar
    17     4     6    1
    18     6     7    1
    19    20    21    1
    20    21    22   ar
    21    22    23   ar
    22    23    24   ar
    23    24    25    1
    24    24    26   ar
    25    26    27   ar
    26     7     1    1
    27    27    21   ar
    28    15     9   ar
    29     5     8    1
@<TRIPOS>MOLECULE
*****
 27 29 0 0 0
SMALL
GASTEIGER

@<TRIPOS>ATOM
      1 N          62.3977   89.5086   12.7322 N.3     1  UNL1       -0.2725
      2 C          61.0721   90.0770   12.3203 C.3     1  UNL1        0.0748
      3 C          60.3523   89.5149   11.1304 C.3     1  UNL1        0.0485
      4 C          60.9580   88.3844   10.3525 C.3     1  UNL1        0.1096
      5 O          59.6898   88.5843    9.5768 O.3     1  UNL1       -0.3826
      6 C          62.2836   87.8161   10.7644 C.3     1  UNL1        0.0485
      7 C          63.0034   88.3782   11.9543 C.3     1  UNL1        0.0748
      8 H          59.1778   89.3058    9.9746 H       1  UNL1        0.2107
      9 C          61.1232   87.3234    9.3052 C.ar    1  UNL1        0.0019
     10 C          59.9798   86.9822    8.3962 C.ar    1  UNL1       -0.0012
     11 C          60.1451   85.9212    7.3488 C.ar    1  UNL1        0.0111
     12 C          61.4538   85.2013    7.2105 C.ar    1  UNL1        0.0577
     13 CL         61.6190   84.1402    6.1631 Cl      1  UNL1       -0.0822
     14 C          62.5972   85.5425    8.1195 C.ar    1  UNL1        0.0111
     15 C          62.4319   86.6035    9.1668 C.ar    1  UNL1       -0.0012
     16 C          63.1176   90.0707   13.9221 C.3     1  UNL1        0.0726
     17 C          64.4872   90.6605   13.7603 C.3     1  UNL1        0.0254
     18 C          64.7648   91.6153   12.6372 C.3     1  UNL1        0.0706
     19 O          66.0164   93.2246   14.2476 O.2     1  UNL1       -0.2913
     20 C          65.6826   92.7817   12.8539 C.2     1  UNL1        0.1731
     21 C          66.2667   93.5053   11.6769 C.ar    1  UNL1        0.0348
     22 C          66.1590   94.9987   11.5856 C.ar    1  UNL1        0.0051
     23 C          66.7430   95.7222   10.4086 C.ar    1  UNL1        0.0297
     24 C          67.4348   94.9524    9.3228 C.ar    1  UNL1        0.1401
     25 F          68.0188   95.6759    8.1458 F       1  UNL1       -0.2042
     26 C          67.5424   93.4591    9.4140 C.ar    1  UNL1        0.0297
     27 C          66.9584   92.7355   10.5911 C.ar    1  UNL1        0.0051
@<TRIPOS>BOND
     1    19    20    2
     2    20    18    1
     3    18    17    1
     4    17    16    1
     5    16     1    1
     6     1     2    1
     7     2     3    1
     8     3     4    1
     9     4     5    1
    10     4     9    1
    11     9    10   ar
    12    10    11   ar
    13    11    12   ar
    14    12    13    1
    15    12    14   ar
    16    14    15   ar
    17     4     6    1
    18     6     7    1
    19    20    21    1
    20    21    22   ar
    21    22    23   ar
    22    23    24   ar
    23    24    25    1
    24    24    26   ar
    25    26    27   ar
    26     7     1    1
    27    27    21   ar
    28    15     9   ar
    29     5     8    1
@<TRIPOS>MOLECULE
*****
 27 29 0 0 0
SMALL
GASTEIGER

@<TRIPOS>ATOM
      1 N          62.0163   87.0091   11.4715 N.3     1  UNL1       -0.2725
      2 C          61.2216   88.1348   10.8788 C.3     1  UNL1        0.0748
      3 C          61.5784   89.5556   11.2012 C.3     1  UNL1        0.0485
      4 C          62.7298   89.8507   12.1162 C.3     1  UNL1        0.1096
      5 O          62.2808   91.2474   11.8036 O.3     1  UNL1       -0.3826
      6 C          63.5244   88.7250   12.7088 C.3     1  UNL1        0.0485
      7 C          63.1677   87.3042   12.3865 C.3     1  UNL1        0.0748
      8 H          61.5195   91.2156   11.2034 H       1  UNL1        0.2107
      9 C          63.7252   90.6309   12.9226 C.ar    1  UNL1        0.0019
     10 C          63.8444   90.3948   14.3991 C.ar    1  UNL1       -0.0012
     11 C          64.8399   91.1752   15.2054 C.ar    1  UNL1        0.0111
     12 C          65.7161   92.1915   14.5353 C.ar    1  UNL1        0.0577
     13 CL         66.7116   92.9719   15.3417 Cl      1  UNL1       -0.0822
     14 C          65.5969   92.4277   13.0588 C.ar    1  UNL1        0.0111
     15 C          64.6015   91.6474   12.2524 C.ar    1  UNL1       -0.0012
     16 C          61.6596   85.5881   11.1491 C.3     1  UNL1        0.0726
     17 C          62.7406   84.5946   10.8421 C.3     1  UNL1        0.0254
     18 C          62.7371   83.2518   11.5107 C.3     1  UNL1        0.0706
     19 O          64.5998   81.8529   12.6610 O.2     1  UNL1       -0.2913
     20 C          63.6312   82.9979   12.6880 C.2     1  UNL1        0.1731
     21 C          63.5568   83.8890   13.8923 C.ar    1  UNL1        0.0348
     22 C          62.3555   83.8388   14.7893 C.ar    1  UNL1        0.0051
     23 C          62.2810   84.7299   15.9936 C.ar    1  UNL1        0.0297
     24 C          63.4077   85.6712   16.3010 C.ar    1  UNL1        0.1401
     25 F          63.3333   86.5622   17.5053 F       1  UNL1       -0.2042
     26 C          64.6089   85.7214   15.4040 C.ar    1  UNL1        0.0297
     27 C          64.6835   84.8303   14.1997 C.ar    1  UNL1        0.0051
@<TRIPOS>BOND
     1    19    20    2
     2    20    18    1
     3    18    17    1
     4    17    16    1
     5    16     1    1
     6     1     2    1
     7     2     3    1
     8     3     4    1
     9     4     5    1
    10     4     9    1
    11     9    10   ar
    12    10    11   ar
    13    11    12   ar
    14    12    13    1
    15    12    14   ar
    16    14    15   ar
    17     4     6    1
    18     6     7    1
    19    20    21    1
    20    21    22   ar
    21    22    23   ar
    22    23    24   ar
    23    24    25    1
    24    24    26   ar
    25    26    27   ar
    26     7     1    1
    27    27    21   ar
    28    15     9   ar
    29     5     8    1
