@<TRIPOS>MOLECULE
*****
 29 31 0 0 0
SMALL
GASTEIGER

@<TRIPOS>ATOM
      1 C          72.1721   77.8772   11.8201 C.ar    1  UNL1        0.0188
      2 C          73.3868   77.0145   11.9940 C.ar    1  UNL1        0.0012
      3 C          73.3120   75.7745   12.8348 C.ar    1  UNL1       -0.0042
      4 C          72.0225   75.3972   13.5017 C.ar    1  UNL1       -0.0225
      5 C          70.8078   76.2599   13.3279 C.ar    1  UNL1       -0.0042
      6 C          70.8826   77.4999   12.4871 C.ar    1  UNL1        0.0012
      7 C          72.4713   82.8370    8.4570 C.3     1  UNL1        0.0539
      8 C          72.3965   81.5970    9.2978 C.ar    1  UNL1        0.0810
      9 N          72.5062   81.6953   10.7905 N.ar    1  UNL1       -0.2508
     10 C          72.4314   80.4553   11.6313 C.ar    1  UNL1        0.0765
     11 C          72.5411   80.5537   13.1241 C.3     1  UNL1        0.0537
     12 C          72.2469   79.1171   10.9794 C.ar    1  UNL1        0.0949
     13 N          72.1372   79.0189    9.4866 N.ar    1  UNL1       -0.2384
     14 C          72.2120   80.2588    8.6459 C.ar    1  UNL1        0.1476
     15 C          72.1023   80.1605    7.1531 C.2     1  UNL1        0.2617
     16 N          70.7548   80.2030    6.4956 N.am    1  UNL1       -0.3240
     17 O          73.3402   80.0197    6.3178 O.2     1  UNL1       -0.2687
     18 H          69.9423   80.2954    7.0439 H       1  UNL1        0.1453
     19 H          70.6828   80.1385    5.5159 H       1  UNL1        0.1453
     20 C          71.9477   74.1573   14.3425 C.3     1  UNL1        0.0223
     21 C          72.5584   74.1421   15.7124 C.3     1  UNL1        0.0044
     22 C          72.4836   72.9021   16.5532 C.3     1  UNL1        0.0007
     23 C          71.7981   71.6774   16.0240 C.3     1  UNL1        0.0056
     24 C          71.1875   71.6926   14.6541 C.3     1  UNL1        0.0007
     25 C          71.2623   72.9325   13.8133 C.3     1  UNL1        0.0044
     26 C          71.7233   70.4374   16.8648 C.3     1  UNL1        0.0417
     27 C          70.6822   70.3208   17.9383 C.2     1  UNL1        0.0503
     28 O          70.4028   68.9896   18.5707 O.co2   1  UNL1       -0.5492
     29 O          69.9205   71.5354   18.3794 O.co2   1  UNL1       -0.5492
@<TRIPOS>UNITY_ATOM_ATTR
28 1
charge -1
@<TRIPOS>BOND
     1     7     8    1
     2     8     9   ar
     3     9    10   ar
     4    10    11    1
     5    10    12   ar
     6    12     1    1
     7     1     2   ar
     8     2     3   ar
     9     3     4   ar
    10    20     4    1
    11    20    21    1
    12    21    22    1
    13    22    23    1
    14    23    26    1
    15    26    27    1
    16    27    28   ar
    17    27    29   ar
    18    23    24    1
    19    24    25    1
    20     4     5   ar
    21     5     6   ar
    22    12    13   ar
    23    13    14   ar
    24    14    15    1
    25    15    16   am
    26    15    17    2
    27    14     8   ar
    28     6     1   ar
    29    25    20    1
    30    16    18    1
    31    16    19    1
@<TRIPOS>MOLECULE
*****
 29 31 0 0 0
SMALL
GASTEIGER

@<TRIPOS>ATOM
      1 C          63.4646   86.1505   13.7145 C.ar    1  UNL1        0.0188
      2 C          63.0223   86.9912   12.5537 C.ar    1  UNL1        0.0012
      3 C          63.4849   88.4134   12.4383 C.ar    1  UNL1       -0.0042
      4 C          64.3898   88.9949   13.4836 C.ar    1  UNL1       -0.0225
      5 C          64.8321   88.1543   14.6445 C.ar    1  UNL1       -0.0042
      6 C          64.3695   86.7321   14.7599 C.ar    1  UNL1        0.0012
      7 C          61.6142   80.4617   14.1763 C.3     1  UNL1        0.0539
      8 C          62.0768   81.8839   14.0609 C.ar    1  UNL1        0.0810
      9 N          61.8396   82.8437   15.1889 N.ar    1  UNL1       -0.2508
     10 C          62.3022   84.2659   15.0735 C.ar    1  UNL1        0.0765
     11 C          62.0649   85.2256   16.2016 C.3     1  UNL1        0.0537
     12 C          63.0020   84.7283   13.8300 C.ar    1  UNL1        0.0949
     13 N          63.2392   83.7686   12.7019 N.ar    1  UNL1       -0.2384
     14 C          62.7766   82.3464   12.8174 C.ar    1  UNL1        0.1476
     15 C          63.0139   81.3866   11.6892 C.2     1  UNL1        0.2617
     16 N          63.5560   81.8846   10.3823 N.am    1  UNL1       -0.3240
     17 O          62.7089   79.9288   11.8681 O.2     1  UNL1       -0.2687
     18 H          63.7562   82.8413   10.2650 H       1  UNL1        0.1453
     19 H          63.7117   81.2547    9.6419 H       1  UNL1        0.1453
     20 C          64.8524   90.4171   13.3682 C.3     1  UNL1        0.0223
     21 C          64.4843   91.2300   12.1625 C.3     1  UNL1        0.0044
     22 C          64.9469   92.6522   12.0471 C.3     1  UNL1        0.0007
     23 C          65.7776   93.2616   13.1373 C.3     1  UNL1        0.0056
     24 C          66.1457   92.4487   14.3430 C.3     1  UNL1        0.0007
     25 C          65.6831   91.0265   14.4584 C.3     1  UNL1        0.0044
     26 C          66.2402   94.6838   13.0218 C.3     1  UNL1        0.0417
     27 C          66.3984   95.3136   11.6697 C.2     1  UNL1        0.0503
     28 O          67.2629   94.6584   10.6336 O.co2   1  UNL1       -0.5492
     29 O          65.6920   96.5986   11.3536 O.co2   1  UNL1       -0.5492
@<TRIPOS>UNITY_ATOM_ATTR
28 1
charge -1
@<TRIPOS>BOND
     1     7     8    1
     2     8     9   ar
     3     9    10   ar
     4    10    11    1
     5    10    12   ar
     6    12     1    1
     7     1     2   ar
     8     2     3   ar
     9     3     4   ar
    10    20     4    1
    11    20    21    1
    12    21    22    1
    13    22    23    1
    14    23    26    1
    15    26    27    1
    16    27    28   ar
    17    27    29   ar
    18    23    24    1
    19    24    25    1
    20     4     5   ar
    21     5     6   ar
    22    12    13   ar
    23    13    14   ar
    24    14    15    1
    25    15    16   am
    26    15    17    2
    27    14     8   ar
    28     6     1   ar
    29    25    20    1
    30    16    18    1
    31    16    19    1
@<TRIPOS>MOLECULE
*****
 29 31 0 0 0
SMALL
GASTEIGER

@<TRIPOS>ATOM
      1 C          63.9839   87.3796   14.4717 C.ar    1  UNL1        0.0188
      2 C          64.3141   86.2279   15.3741 C.ar    1  UNL1        0.0012
      3 C          64.0600   84.8214   14.9187 C.ar    1  UNL1       -0.0042
      4 C          63.4757   84.5667   13.5609 C.ar    1  UNL1       -0.0225
      5 C          63.1455   85.7185   12.6585 C.ar    1  UNL1       -0.0042
      6 C          63.3996   87.1249   13.1139 C.ar    1  UNL1        0.0012
      7 C          65.0004   93.0053   16.2932 C.3     1  UNL1        0.0539
      8 C          64.7463   91.5989   15.8378 C.ar    1  UNL1        0.0810
      9 N          63.7574   90.7407   16.5696 N.ar    1  UNL1       -0.2508
     10 C          63.5033   89.3343   16.1143 C.ar    1  UNL1        0.0765
     11 C          62.5144   88.4761   16.8462 C.3     1  UNL1        0.0537
     12 C          64.2380   88.7860   14.9270 C.ar    1  UNL1        0.0949
     13 N          65.2269   89.6442   14.1952 N.ar    1  UNL1       -0.2384
     14 C          65.4810   91.0507   14.6506 C.ar    1  UNL1        0.1476
     15 C          66.4699   91.9089   13.9186 C.2     1  UNL1        0.2617
     16 N          67.9377   91.7582   14.1881 N.am    1  UNL1       -0.3240
     17 O          65.9909   92.9177   12.9172 O.2     1  UNL1       -0.2687
     18 H          68.2521   91.0961   14.8454 H       1  UNL1        0.1453
     19 H          68.5868   92.3215   13.7078 H       1  UNL1        0.1453
     20 C          63.2216   83.1603   13.1055 C.3     1  UNL1        0.0223
     21 C          63.4454   82.7845   11.6708 C.3     1  UNL1        0.0044
     22 C          63.1913   81.3781   11.2154 C.3     1  UNL1        0.0007
     23 C          62.7133   80.3474   12.1948 C.3     1  UNL1        0.0056
     24 C          62.4895   80.7232   13.6296 C.3     1  UNL1        0.0007
     25 C          62.7436   82.1297   14.0849 C.3     1  UNL1        0.0044
     26 C          62.4592   78.9410   11.7394 C.3     1  UNL1        0.0417
     27 C          62.8391   78.5223   10.3501 C.2     1  UNL1        0.0503
     28 O          63.5567   77.2239   10.1278 O.co2   1  UNL1       -0.5492
     29 O          62.5013   79.4019    9.1829 O.co2   1  UNL1       -0.5492
@<TRIPOS>UNITY_ATOM_ATTR
28 1
charge -1
@<TRIPOS>BOND
     1     7     8    1
     2     8     9   ar
     3     9    10   ar
     4    10    11    1
     5    10    12   ar
     6    12     1    1
     7     1     2   ar
     8     2     3   ar
     9     3     4   ar
    10    20     4    1
    11    20    21    1
    12    21    22    1
    13    22    23    1
    14    23    26    1
    15    26    27    1
    16    27    28   ar
    17    27    29   ar
    18    23    24    1
    19    24    25    1
    20     4     5   ar
    21     5     6   ar
    22    12    13   ar
    23    13    14   ar
    24    14    15    1
    25    15    16   am
    26    15    17    2
    27    14     8   ar
    28     6     1   ar
    29    25    20    1
    30    16    18    1
    31    16    19    1
@<TRIPOS>MOLECULE
*****
 29 31 0 0 0
SMALL
GASTEIGER

@<TRIPOS>ATOM
      1 C          62.5623   89.4561   10.8729 C.ar    1  UNL1        0.0188
      2 C          63.1338   90.7433   10.3568 C.ar    1  UNL1        0.0012
      3 C          64.0799   91.5383   11.2071 C.ar    1  UNL1       -0.0042
      4 C          64.4544   91.0460   12.5736 C.ar    1  UNL1       -0.0225
      5 C          63.8829   89.7588   13.0897 C.ar    1  UNL1       -0.0042
      6 C          62.9369   88.9639   12.2394 C.ar    1  UNL1        0.0012
      7 C          58.7781   86.2763    7.4716 C.3     1  UNL1        0.0539
      8 C          59.7242   87.0713    8.3219 C.ar    1  UNL1        0.0810
      9 N          59.2331   88.2809    9.0606 N.ar    1  UNL1       -0.2508
     10 C          60.1791   89.0758    9.9109 C.ar    1  UNL1        0.0765
     11 C          59.6879   90.2855   10.6496 C.3     1  UNL1        0.0537
     12 C          61.6163   88.6612   10.0226 C.ar    1  UNL1        0.0949
     13 N          62.1074   87.4516    9.2840 N.ar    1  UNL1       -0.2384
     14 C          61.1614   86.6566    8.4336 C.ar    1  UNL1        0.1476
     15 C          61.6526   85.4470    7.6950 C.2     1  UNL1        0.2617
     16 N          63.0002   84.8701    8.0128 N.am    1  UNL1       -0.3240
     17 O          60.7961   84.8143    6.6385 O.2     1  UNL1       -0.2687
     18 H          63.5624   85.2854    8.7062 H       1  UNL1        0.1453
     19 H          63.3226   84.0762    7.5280 H       1  UNL1        0.1453
     20 C          65.4005   91.8410   13.4239 C.3     1  UNL1        0.0223
     21 C          65.8104   91.3264   14.7719 C.3     1  UNL1        0.0044
     22 C          66.7564   92.1214   15.6222 C.3     1  UNL1        0.0007
     23 C          67.2926   93.4309   15.1245 C.3     1  UNL1        0.0056
     24 C          66.8826   93.9454   13.7766 C.3     1  UNL1        0.0007
     25 C          65.9366   93.1505   12.9262 C.3     1  UNL1        0.0044
     26 C          68.2386   94.2258   15.9749 C.3     1  UNL1        0.0417
     27 C          69.6696   93.7963   16.1073 C.2     1  UNL1        0.0503
     28 O          70.7725   94.7218   15.6863 O.co2   1  UNL1       -0.5492
     29 O          69.9979   92.4413   16.6608 O.co2   1  UNL1       -0.5492
@<TRIPOS>UNITY_ATOM_ATTR
28 1
charge -1
@<TRIPOS>BOND
     1     7     8    1
     2     8     9   ar
     3     9    10   ar
     4    10    11    1
     5    10    12   ar
     6    12     1    1
     7     1     2   ar
     8     2     3   ar
     9     3     4   ar
    10    20     4    1
    11    20    21    1
    12    21    22    1
    13    22    23    1
    14    23    26    1
    15    26    27    1
    16    27    28   ar
    17    27    29   ar
    18    23    24    1
    19    24    25    1
    20     4     5   ar
    21     5     6   ar
    22    12    13   ar
    23    13    14   ar
    24    14    15    1
    25    15    16   am
    26    15    17    2
    27    14     8   ar
    28     6     1   ar
    29    25    20    1
    30    16    18    1
    31    16    19    1
@<TRIPOS>MOLECULE
*****
 29 31 0 0 0
SMALL
GASTEIGER

@<TRIPOS>ATOM
      1 C          64.7505   90.2818   13.3689 C.ar    1  UNL1        0.0188
      2 C          63.8440   89.6643   12.3458 C.ar    1  UNL1        0.0012
      3 C          63.3786   88.2482   12.5132 C.ar    1  UNL1       -0.0042
      4 C          63.8197   87.4496   13.7038 C.ar    1  UNL1       -0.0225
      5 C          64.7263   88.0670   14.7269 C.ar    1  UNL1       -0.0042
      6 C          65.1917   89.4831   14.5595 C.ar    1  UNL1        0.0012
      7 C          66.6121   95.9462   12.6992 C.3     1  UNL1        0.0539
      8 C          66.1467   94.5301   12.8667 C.ar    1  UNL1        0.0810
      9 N          66.0506   93.9294   14.2377 N.ar    1  UNL1       -0.2508
     10 C          65.5852   92.5133   14.4051 C.ar    1  UNL1        0.0765
     11 C          65.4890   91.9125   15.7763 C.3     1  UNL1        0.0537
     12 C          65.2159   91.6979   13.2015 C.ar    1  UNL1        0.0949
     13 N          65.3121   92.2986   11.8305 N.ar    1  UNL1       -0.2384
     14 C          65.7775   93.7147   11.6630 C.ar    1  UNL1        0.1476
     15 C          65.8737   94.3155   10.2919 C.2     1  UNL1        0.2617
     16 N          64.9891   95.4663    9.9136 N.am    1  UNL1       -0.3240
     17 O          66.8544   93.7653    9.2991 O.2     1  UNL1       -0.2687
     18 H          64.3455   95.8274   10.5651 H       1  UNL1        0.1453
     19 H          65.0522   95.8605    9.0137 H       1  UNL1        0.1453
     20 C          63.3543   86.0334   13.8712 C.3     1  UNL1        0.0223
     21 C          62.9466   85.2312   12.6712 C.3     1  UNL1        0.0044
     22 C          62.4812   83.8150   12.8386 C.3     1  UNL1        0.0007
     23 C          62.4235   83.2012   14.2060 C.3     1  UNL1        0.0056
     24 C          62.8313   84.0035   15.4060 C.3     1  UNL1        0.0007
     25 C          63.2967   85.4196   15.2386 C.3     1  UNL1        0.0044
     26 C          61.9581   81.7851   14.3735 C.3     1  UNL1        0.0417
     27 C          62.7856   80.6552   13.8363 C.2     1  UNL1        0.0503
     28 O          64.1497   80.3899   14.4012 O.co2   1  UNL1       -0.5492
     29 O          62.2491   79.7906   12.7342 O.co2   1  UNL1       -0.5492
@<TRIPOS>UNITY_ATOM_ATTR
28 1
charge -1
@<TRIPOS>BOND
     1     7     8    1
     2     8     9   ar
     3     9    10   ar
     4    10    11    1
     5    10    12   ar
     6    12     1    1
     7     1     2   ar
     8     2     3   ar
     9     3     4   ar
    10    20     4    1
    11    20    21    1
    12    21    22    1
    13    22    23    1
    14    23    26    1
    15    26    27    1
    16    27    28   ar
    17    27    29   ar
    18    23    24    1
    19    24    25    1
    20     4     5   ar
    21     5     6   ar
    22    12    13   ar
    23    13    14   ar
    24    14    15    1
    25    15    16   am
    26    15    17    2
    27    14     8   ar
    28     6     1   ar
    29    25    20    1
    30    16    18    1
    31    16    19    1
@<TRIPOS>MOLECULE
*****
 29 31 0 0 0
SMALL
GASTEIGER

@<TRIPOS>ATOM
      1 C          65.0932   91.2677   13.2481 C.ar    1  UNL1        0.0188
      2 C          64.0647   90.5925   12.3901 C.ar    1  UNL1        0.0012
      3 C          63.6203   89.1961   12.7104 C.ar    1  UNL1       -0.0042
      4 C          64.2045   88.4749   13.8887 C.ar    1  UNL1       -0.0225
      5 C          65.2330   89.1500   14.7468 C.ar    1  UNL1       -0.0042
      6 C          65.6773   90.5464   14.4265 C.ar    1  UNL1        0.0012
      7 C          66.8707   96.8533   11.9670 C.3     1  UNL1        0.0539
      8 C          66.4263   95.4569   12.2873 C.ar    1  UNL1        0.0810
      9 N          66.5624   94.9284   13.6845 N.ar    1  UNL1       -0.2508
     10 C          66.1181   93.5320   14.0047 C.ar    1  UNL1        0.0765
     11 C          66.2542   93.0035   15.4020 C.3     1  UNL1        0.0537
     12 C          65.5376   92.6641   12.9279 C.ar    1  UNL1        0.0949
     13 N          65.4015   93.1926   11.5307 N.ar    1  UNL1       -0.2384
     14 C          65.8458   94.5890   11.2104 C.ar    1  UNL1        0.1476
     15 C          65.7097   95.1175    9.8131 C.2     1  UNL1        0.2617
     16 N          64.6510   96.1311    9.4945 N.am    1  UNL1       -0.3240
     17 O          66.6323   94.6323    8.7346 O.2     1  UNL1       -0.2687
     18 H          64.0454   96.4496   10.2024 H       1  UNL1        0.1453
     19 H          64.5616   96.4780    8.5775 H       1  UNL1        0.1453
     20 C          63.7601   87.0785   14.2090 C.3     1  UNL1        0.0223
     21 C          63.4370   86.1213   13.1002 C.3     1  UNL1        0.0044
     22 C          62.9926   84.7249   13.4205 C.3     1  UNL1        0.0007
     23 C          62.8714   84.2856   14.8496 C.3     1  UNL1        0.0056
     24 C          63.1945   85.2428   15.9583 C.3     1  UNL1        0.0007
     25 C          63.6388   86.6392   15.6381 C.3     1  UNL1        0.0044
     26 C          62.4270   82.8892   15.1698 C.3     1  UNL1        0.0417
     27 C          62.6097   81.7941   14.1612 C.2     1  UNL1        0.0503
     28 O          61.4423   81.3237   13.3451 O.co2   1  UNL1       -0.5492
     29 O          63.9597   81.1694   13.9687 O.co2   1  UNL1       -0.5492
@<TRIPOS>UNITY_ATOM_ATTR
28 1
charge -1
@<TRIPOS>BOND
     1     7     8    1
     2     8     9   ar
     3     9    10   ar
     4    10    11    1
     5    10    12   ar
     6    12     1    1
     7     1     2   ar
     8     2     3   ar
     9     3     4   ar
    10    20     4    1
    11    20    21    1
    12    21    22    1
    13    22    23    1
    14    23    26    1
    15    26    27    1
    16    27    28   ar
    17    27    29   ar
    18    23    24    1
    19    24    25    1
    20     4     5   ar
    21     5     6   ar
    22    12    13   ar
    23    13    14   ar
    24    14    15    1
    25    15    16   am
    26    15    17    2
    27    14     8   ar
    28     6     1   ar
    29    25    20    1
    30    16    18    1
    31    16    19    1
@<TRIPOS>MOLECULE
*****
 29 31 0 0 0
SMALL
GASTEIGER

@<TRIPOS>ATOM
      1 C          64.2092   88.7715   13.3772 C.ar    1  UNL1        0.0188
      2 C          63.3492   88.2028   12.2878 C.ar    1  UNL1        0.0012
      3 C          62.8695   86.7842   12.3744 C.ar    1  UNL1       -0.0042
      4 C          63.2497   85.9344   13.5505 C.ar    1  UNL1       -0.0225
      5 C          64.1097   86.5031   14.6399 C.ar    1  UNL1       -0.0042
      6 C          64.5894   87.9217   14.5533 C.ar    1  UNL1        0.0012
      7 C          66.1280   94.4459   13.0308 C.3     1  UNL1        0.0539
      8 C          65.6483   93.0273   13.1174 C.ar    1  UNL1        0.0810
      9 N          64.6104   92.5266   12.1571 N.ar    1  UNL1       -0.2508
     10 C          64.1307   91.1080   12.2438 C.ar    1  UNL1        0.0765
     11 C          63.0928   90.6073   11.2835 C.3     1  UNL1        0.0537
     12 C          64.6889   90.1901   13.2906 C.ar    1  UNL1        0.0949
     13 N          65.7267   90.6908   14.2508 N.ar    1  UNL1       -0.2384
     14 C          66.2065   92.1094   14.1642 C.ar    1  UNL1        0.1476
     15 C          67.2444   92.6101   15.1245 C.2     1  UNL1        0.2617
     16 N          66.8412   93.0591   16.4977 N.am    1  UNL1       -0.3240
     17 O          68.6855   92.6617   14.7115 O.2     1  UNL1       -0.2687
     18 H          65.8953   93.0252   16.7688 H       1  UNL1        0.1453
     19 H          67.5224   93.3877   17.1280 H       1  UNL1        0.1453
     20 C          62.7700   84.5158   13.6371 C.3     1  UNL1        0.0223
     21 C          62.3354   83.9503   14.9566 C.3     1  UNL1        0.0044
     22 C          61.8556   82.5317   15.0432 C.3     1  UNL1        0.0007
     23 C          61.8106   81.6786   13.8103 C.3     1  UNL1        0.0056
     24 C          62.2453   82.2441   12.4908 C.3     1  UNL1        0.0007
     25 C          62.7250   83.6627   12.4042 C.3     1  UNL1        0.0044
     26 C          61.3309   80.2600   13.8969 C.3     1  UNL1        0.0417
     27 C          59.8810   79.9729   14.1526 C.2     1  UNL1        0.0503
     28 O          59.4162   78.5574   14.3274 O.co2   1  UNL1       -0.5492
     29 O          58.8959   81.1012   14.2334 O.co2   1  UNL1       -0.5492
@<TRIPOS>UNITY_ATOM_ATTR
28 1
charge -1
@<TRIPOS>BOND
     1     7     8    1
     2     8     9   ar
     3     9    10   ar
     4    10    11    1
     5    10    12   ar
     6    12     1    1
     7     1     2   ar
     8     2     3   ar
     9     3     4   ar
    10    20     4    1
    11    20    21    1
    12    21    22    1
    13    22    23    1
    14    23    26    1
    15    26    27    1
    16    27    28   ar
    17    27    29   ar
    18    23    24    1
    19    24    25    1
    20     4     5   ar
    21     5     6   ar
    22    12    13   ar
    23    13    14   ar
    24    14    15    1
    25    15    16   am
    26    15    17    2
    27    14     8   ar
    28     6     1   ar
    29    25    20    1
    30    16    18    1
    31    16    19    1
@<TRIPOS>MOLECULE
*****
 29 31 0 0 0
SMALL
GASTEIGER

@<TRIPOS>ATOM
      1 C          62.3753   89.2787   10.8253 C.ar    1  UNL1        0.0188
      2 C          62.8353   88.5598   12.0588 C.ar    1  UNL1        0.0012
      3 C          63.7791   89.2325   13.0110 C.ar    1  UNL1       -0.0042
      4 C          64.2630   90.6242   12.7296 C.ar    1  UNL1       -0.0225
      5 C          63.8029   91.3431   11.4961 C.ar    1  UNL1       -0.0042
      6 C          62.8591   90.6703   10.5440 C.ar    1  UNL1        0.0012
      7 C          58.6000   86.5877    7.0167 C.3     1  UNL1        0.0539
      8 C          59.5438   87.2604    7.9689 C.ar    1  UNL1        0.0810
      9 N          60.1544   86.4812    9.0958 N.ar    1  UNL1       -0.2508
     10 C          61.0982   87.1539   10.0479 C.ar    1  UNL1        0.0765
     11 C          61.7088   86.3746   11.1749 C.3     1  UNL1        0.0537
     12 C          61.4315   88.6059    9.8732 C.ar    1  UNL1        0.0949
     13 N          60.8209   89.3852    8.7463 N.ar    1  UNL1       -0.2384
     14 C          59.8771   88.7124    7.7941 C.ar    1  UNL1        0.1476
     15 C          59.2665   89.4918    6.6672 C.2     1  UNL1        0.2617
     16 N          57.7749   89.6011    6.5527 N.am    1  UNL1       -0.3240
     17 O          60.1476   90.1617    5.6548 O.2     1  UNL1       -0.2687
     18 H          57.1966   89.1614    7.2171 H       1  UNL1        0.1453
     19 H          57.3742   90.1126    5.8131 H       1  UNL1        0.1453
     20 C          65.2068   91.2969   13.6818 C.3     1  UNL1        0.0223
     21 C          64.7810   91.5672   15.0944 C.3     1  UNL1        0.0044
     22 C          65.7248   92.2400   16.0466 C.3     1  UNL1        0.0007
     23 C          67.0945   92.6424   15.5861 C.3     1  UNL1        0.0056
     24 C          67.5202   92.3721   14.1734 C.3     1  UNL1        0.0007
     25 C          66.5764   91.6994   13.2213 C.3     1  UNL1        0.0044
     26 C          68.0383   93.3152   16.5382 C.3     1  UNL1        0.0417
     27 C          69.1648   94.1535   16.0108 C.2     1  UNL1        0.0503
     28 O          69.3090   95.5797   16.4526 O.co2   1  UNL1       -0.5492
     29 O          70.1471   93.5656   15.0416 O.co2   1  UNL1       -0.5492
@<TRIPOS>UNITY_ATOM_ATTR
28 1
charge -1
@<TRIPOS>BOND
     1     7     8    1
     2     8     9   ar
     3     9    10   ar
     4    10    11    1
     5    10    12   ar
     6    12     1    1
     7     1     2   ar
     8     2     3   ar
     9     3     4   ar
    10    20     4    1
    11    20    21    1
    12    21    22    1
    13    22    23    1
    14    23    26    1
    15    26    27    1
    16    27    28   ar
    17    27    29   ar
    18    23    24    1
    19    24    25    1
    20     4     5   ar
    21     5     6   ar
    22    12    13   ar
    23    13    14   ar
    24    14    15    1
    25    15    16   am
    26    15    17    2
    27    14     8   ar
    28     6     1   ar
    29    25    20    1
    30    16    18    1
    31    16    19    1
@<TRIPOS>MOLECULE
*****
 29 31 0 0 0
SMALL
GASTEIGER

@<TRIPOS>ATOM
      1 C          63.4008   89.4114   12.9605 C.ar    1  UNL1        0.0188
      2 C          63.4918   87.9174   13.0594 C.ar    1  UNL1        0.0012
      3 C          63.0516   87.0615   11.9090 C.ar    1  UNL1       -0.0042
      4 C          62.5204   87.6994   10.6596 C.ar    1  UNL1       -0.0225
      5 C          62.4295   89.1934   10.5608 C.ar    1  UNL1       -0.0042
      6 C          62.8697   90.0493   11.7112 C.ar    1  UNL1        0.0012
      7 C          65.1616   92.8353   17.5623 C.3     1  UNL1        0.0539
      8 C          64.7214   91.9793   16.4118 C.ar    1  UNL1        0.0810
      9 N          63.5773   91.0244   16.5823 N.ar    1  UNL1       -0.2508
     10 C          63.1371   90.1684   15.4318 C.ar    1  UNL1        0.0765
     11 C          61.9930   89.2134   15.6023 C.3     1  UNL1        0.0537
     12 C          63.8410   90.2674   14.1110 C.ar    1  UNL1        0.0949
     13 N          64.9851   91.2223   13.9406 N.ar    1  UNL1       -0.2384
     14 C          65.4253   92.0783   15.0910 C.ar    1  UNL1        0.1476
     15 C          66.5695   93.0333   14.9205 C.2     1  UNL1        0.2617
     16 N          67.9029   92.7231   15.5334 N.am    1  UNL1       -0.3240
     17 O          66.3801   94.2984   14.1372 O.2     1  UNL1       -0.2687
     18 H          68.0272   91.8928   16.0475 H       1  UNL1        0.1453
     19 H          68.6539   93.3499   15.4215 H       1  UNL1        0.1453
     20 C          62.0802   86.8434    9.5092 C.3     1  UNL1        0.0223
     21 C          60.7024   87.0045    8.9387 C.3     1  UNL1        0.0044
     22 C          60.2622   86.1485    7.7882 C.3     1  UNL1        0.0007
     23 C          61.1998   85.1315    7.2083 C.3     1  UNL1        0.0056
     24 C          62.5777   84.9704    7.7789 C.3     1  UNL1        0.0007
     25 C          63.0179   85.8263    8.9293 C.3     1  UNL1        0.0044
     26 C          60.7596   84.2755    6.0579 C.3     1  UNL1        0.0417
     27 C          61.6240   84.1565    4.8378 C.2     1  UNL1        0.0503
     28 O          60.9953   84.0755    3.4782 O.co2   1  UNL1       -0.5492
     29 O          63.1170   84.1185    4.9771 O.co2   1  UNL1       -0.5492
@<TRIPOS>UNITY_ATOM_ATTR
28 1
charge -1
@<TRIPOS>BOND
     1     7     8    1
     2     8     9   ar
     3     9    10   ar
     4    10    11    1
     5    10    12   ar
     6    12     1    1
     7     1     2   ar
     8     2     3   ar
     9     3     4   ar
    10    20     4    1
    11    20    21    1
    12    21    22    1
    13    22    23    1
    14    23    26    1
    15    26    27    1
    16    27    28   ar
    17    27    29   ar
    18    23    24    1
    19    24    25    1
    20     4     5   ar
    21     5     6   ar
    22    12    13   ar
    23    13    14   ar
    24    14    15    1
    25    15    16   am
    26    15    17    2
    27    14     8   ar
    28     6     1   ar
    29    25    20    1
    30    16    18    1
    31    16    19    1
