@<TRIPOS>MOLECULE
*****
 59 65 0 0 0
SMALL
GASTEIGER

@<TRIPOS>ATOM
      1 N          65.3682   89.3684   14.6625 N.3     1  UNL1       -0.1862
      2 C          65.5563   88.1232   15.4774 C.3     1  UNL1        0.1775
      3 C          64.8261   86.8666   15.1062 C.2     1  UNL1        0.2452
      4 O          65.0142   85.6213   15.9211 O.2     1  UNL1       -0.2732
      5 N          63.9079   86.8552   13.9202 N.am    1  UNL1       -0.2541
      6 C          63.1777   85.5986   13.5490 C.3     1  UNL1        0.1577
      7 C          62.2594   85.5872   12.3630 C.2     1  UNL1        0.2445
      8 O          61.5293   84.3306   11.9919 O.2     1  UNL1       -0.2731
      9 N          62.0714   86.8324   11.5481 N.am    1  UNL1       -0.2705
     10 C          62.8016   88.0890   11.9192 C.3     1  UNL1        0.1359
     11 C          63.7198   88.1004   13.1053 C.3     1  UNL1        0.1908
     12 N          64.4500   89.3570   13.4765 N.am    1  UNL1       -0.1863
     13 C          64.2619   90.6023   12.6616 C.2     1  UNL1        0.3191
     14 O          63.3437   90.5909   11.4755 O.2     1  UNL1       -0.2512
     15 N          64.9921   91.8589   13.0327 N.am    1  UNL1       -0.2836
     16 H          65.5948   91.8663   13.8112 H       1  UNL1        0.1513
     17 C          66.0984   90.6250   15.0337 C.3     1  UNL1        0.1188
     18 C          68.0979   92.2348   14.6330 C.2     1  UNL1       -0.0034
     19 C          67.4793   90.8745   14.5036 C.2     1  UNL1       -0.0071
     20 C          63.3657   84.3534   14.3639 C.3     1  UNL1        0.0556
     21 C          63.1661   83.0071   13.7333 C.ar    1  UNL1       -0.0198
     22 C          62.1341   82.0672   14.2823 C.ar    1  UNL1       -0.0011
     23 C          61.9345   80.7210   13.6517 C.ar    1  UNL1        0.0363
     24 C          62.7670   80.3145   12.4720 C.ar    1  UNL1        0.1337
     25 O          62.5674   78.9682   11.8413 O.3     1  UNL1       -0.5055
     26 C          63.7991   81.2544   11.9228 C.ar    1  UNL1        0.0363
     27 C          63.9987   82.6007   12.5535 C.ar    1  UNL1       -0.0011
     28 H          61.9227   78.3811   12.1843 H       1  UNL1        0.2922
     29 C          61.1531   86.8210   10.3621 C.3     1  UNL1        0.1217
     30 C          60.5618   88.1045    9.8590 C.ar    1  UNL1        0.0135
     31 C          60.3870   89.2661   10.7918 C.ar    1  UNL1       -0.0012
     32 C          59.7957   90.5496   10.2887 C.ar    1  UNL1       -0.0002
     33 C          59.3793   90.6715    8.8529 C.ar    1  UNL1        0.0016
     34 C          59.5541   89.5099    7.9201 C.ar    1  UNL1        0.0214
     35 C          59.2387   89.3356    6.4640 C.ar    1  UNL1        0.0721
     36 C          59.6351   87.9444    6.0672 C.ar    1  UNL1        0.0805
     37 N          60.1954   87.2589    7.2779 N.ar    1  UNL1       -0.3241
     38 C          60.7147   85.8528    7.3338 C.3     1  UNL1        0.1305
     39 C          60.1454   88.2264    8.4231 C.ar    1  UNL1        0.0577
     40 C          58.6332   90.3708    5.5630 C.2     1  UNL1        0.2506
     41 O          57.1549   90.6226    5.5971 O.2     1  UNL1       -0.2699
     42 N          59.5061   91.1541    4.6278 N.am    1  UNL1       -0.2731
     43 C          58.9007   92.1892    3.7267 C.3     1  UNL1        0.1129
     44 C          59.7735   92.9725    2.7915 C.3     1  UNL1        0.1169
     45 N          61.2518   92.7206    2.7574 N.3     1  UNL1       -0.1559
     46 C          61.8572   91.6854    3.6585 C.3     1  UNL1        0.1169
     47 C          60.9844   90.9021    4.5936 C.3     1  UNL1        0.1129
     48 S          62.1247   93.5039    1.8222 S.O2    1  UNL1        0.0439
     49 O          63.1943   92.4596    1.9459 O.2     1  UNL1       -0.1573
     50 O          61.0550   94.5482    1.6985 O.2     1  UNL1       -0.1573
     51 C          62.9975   94.2871    0.8870 C.3     1  UNL1        0.1692
     52 C          64.3207   93.7300    0.4523 C.3     1  UNL1        0.0289
     53 C          64.8041   93.1041   12.2179 C.3     1  UNL1        0.1177
     54 C          65.8422   93.5065   11.2126 C.ar    1  UNL1       -0.0025
     55 C          66.7959   92.4843   10.6692 C.ar    1  UNL1       -0.0026
     56 C          67.8340   92.8866    9.6640 C.ar    1  UNL1       -0.0003
     57 C          67.9183   94.3113    9.2022 C.ar    1  UNL1       -0.0000
     58 C          66.9645   95.3336    9.7456 C.ar    1  UNL1       -0.0003
     59 C          65.9265   94.9312   10.7508 C.ar    1  UNL1       -0.0026
@<TRIPOS>BOND
     1    18    19    2
     2    19    17    1
     3    17     1    1
     4     1     2    1
     5     2     3    1
     6     3     4    2
     7     3     5   am
     8     5     6    1
     9     6    20    1
    10    20    21    1
    11    21    22   ar
    12    22    23   ar
    13    23    24   ar
    14    24    25    1
    15    24    26   ar
    16    26    27   ar
    17     6     7    1
    18     7     8    2
    19     7     9   am
    20     9    29    1
    21    29    30    1
    22    30    31   ar
    23    31    32   ar
    24    32    33   ar
    25    33    34   ar
    26    34    35   ar
    27    35    40    1
    28    40    41    2
    29    40    42   am
    30    42    43    1
    31    43    44    1
    32    44    45    1
    33    45    48    1
    34    48    49    2
    35    48    50    2
    36    48    51    1
    37    51    52    1
    38    45    46    1
    39    46    47    1
    40    35    36   ar
    41    36    37   ar
    42    37    38    1
    43    37    39   ar
    44     9    10    1
    45    11    10    1
    46    11    12    1
    47    12    13   am
    48    13    14    2
    49    13    15   am
    50    15    53    1
    51    53    54    1
    52    54    55   ar
    53    55    56   ar
    54    56    57   ar
    55    57    58   ar
    56    58    59   ar
    57    12     1    1
    58    59    54   ar
    59    11     5    1
    60    27    21   ar
    61    39    30   ar
    62    39    34   ar
    63    47    42    1
    64    25    28    1
    65    15    16    1
