@<TRIPOS>MOLECULE
*****
 29 31 0 0 0
SMALL
GASTEIGER

@<TRIPOS>ATOM
      1 C          63.6138   90.7610   11.7826 C.ar    1  UNL1        0.1534
      2 C          62.6275   90.8008   10.6532 C.ar    1  UNL1        0.0351
      3 C          61.7307   89.6256   10.3989 C.ar    1  UNL1        0.0722
      4 CL         60.7444   89.6654    9.2694 Cl      1  UNL1       -0.0809
      5 C          61.8202   88.4106   11.2740 C.ar    1  UNL1        0.0577
      6 C          62.8065   88.3708   12.4035 C.ar    1  UNL1        0.0462
      7 C          63.7032   89.5460   12.6578 C.ar    1  UNL1        0.1602
      8 F          64.6896   89.5062   13.7873 F       1  UNL1       -0.2027
      9 O          64.9493   91.9117   10.6028 O.2     1  UNL1       -0.1498
     10 S          64.5107   91.9362   12.0370 S.O2    1  UNL1        0.0772
     11 O          64.0720   91.9606   13.4712 O.2     1  UNL1       -0.1498
     12 N          65.4075   93.1113   12.2913 N.pl3   1  UNL1       -0.1936
     13 H          65.3289   93.9199   11.7352 H       1  UNL1        0.1758
     14 C          66.4241   93.0544   13.3928 C.ar    1  UNL1        0.1786
     15 N          66.5185   93.9979   14.5551 N.ar    1  UNL1       -0.2214
     16 C          67.6775   93.5707   15.4060 C.ar    1  UNL1        0.1079
     17 C          68.2996   92.3631   14.7696 C.ar    1  UNL1        0.0588
     18 S          67.5249   92.0441   13.5253 S.2     1  UNL1       -0.0497
     19 N          60.9233   87.2354   11.0197 N.pl3   1  UNL1       -0.3319
     20 H          60.0397   87.1881   11.4513 H       1  UNL1        0.1468
     21 C          61.3727   86.1325   10.1078 C.3     1  UNL1        0.0870
     22 C          62.3520   85.1069   10.5972 C.3     1  UNL1        0.0197
     23 C          62.4569   84.8098   12.0637 C.3     1  UNL1        0.0042
     24 C          63.4361   83.7843   12.5529 C.3     1  UNL1        0.0293
     25 C          64.3103   83.0558   11.5757 C.3     1  UNL1        0.1105
     26 O          65.2895   82.0302   12.0650 O.3     1  UNL1       -0.3845
     27 C          64.2054   83.3529   10.1092 C.3     1  UNL1        0.0293
     28 C          63.2262   84.3784    9.6199 C.3     1  UNL1        0.0042
     29 H          65.2298   81.9610   13.0307 H       1  UNL1        0.2103
@<TRIPOS>BOND
     1     9    10    2
     2    10    11    2
     3    10    12    1
     4    12    14    1
     5    14    15   ar
     6    15    16   ar
     7    16    17   ar
     8    17    18   ar
     9    10     1    1
    10     1     2   ar
    11     2     3   ar
    12     3     4    1
    13     3     5   ar
    14     5    19    1
    15    19    21    1
    16    22    21    1
    17    22    23    1
    18    23    24    1
    19    24    25    1
    20    25    26    1
    21    25    27    1
    22    27    28    1
    23     5     6   ar
    24     6     7   ar
    25     7     8    1
    26    18    14   ar
    27     7     1   ar
    28    28    22    1
    29    12    13    1
    30    19    20    1
    31    26    29    1
@<TRIPOS>MOLECULE
*****
 29 31 0 0 0
SMALL
GASTEIGER

@<TRIPOS>ATOM
      1 C          63.8071   86.7067   15.3860 C.ar    1  UNL1        0.1534
      2 C          64.0292   87.4921   14.1275 C.ar    1  UNL1        0.0351
      3 C          63.8819   88.9847   14.1392 C.ar    1  UNL1        0.0722
      4 CL         64.1040   89.7702   12.8807 Cl      1  UNL1       -0.0809
      5 C          63.5125   89.6921   15.4094 C.ar    1  UNL1        0.0577
      6 C          63.2904   88.9067   16.6678 C.ar    1  UNL1        0.0462
      7 C          63.4377   87.4140   16.6562 C.ar    1  UNL1        0.1602
      8 F          63.2156   86.6286   17.9147 F       1  UNL1       -0.2027
      9 O          62.5049   85.0682   15.7318 O.2     1  UNL1       -0.1498
     10 S          63.9544   85.2139   15.3744 S.O2    1  UNL1        0.0772
     11 O          65.4038   85.3597   15.0170 O.2     1  UNL1       -0.1498
     12 N          64.1016   83.7213   15.3628 N.pl3   1  UNL1       -0.1936
     13 H          64.6744   83.2779   16.0296 H       1  UNL1        0.1758
     14 C          63.3760   82.9040   14.3353 C.ar    1  UNL1        0.1786
     15 N          62.3933   81.8059   14.6154 N.ar    1  UNL1       -0.2214
     16 C          61.9158   81.2647   13.3005 C.ar    1  UNL1        0.1079
     17 C          62.6034   82.0282   12.2076 C.ar    1  UNL1        0.0588
     18 S          63.5060   83.0414   12.8472 S.2     1  UNL1       -0.0497
     19 N          63.3652   91.1848   15.4210 N.pl3   1  UNL1       -0.3319
     20 H          62.5849   91.6058   14.9931 H       1  UNL1        0.1468
     21 C          64.4069   92.0361   16.0845 C.3     1  UNL1        0.0870
     22 C          65.7959   92.0968   15.5215 C.3     1  UNL1        0.0197
     23 C          66.0226   91.8637   14.0572 C.3     1  UNL1        0.0042
     24 C          67.4116   91.9244   13.4943 C.3     1  UNL1        0.0293
     25 C          68.5740   92.2183   14.3957 C.3     1  UNL1        0.1105
     26 O          69.9630   92.2790   13.8327 O.3     1  UNL1       -0.3845
     27 C          68.3473   92.4514   15.8600 C.3     1  UNL1        0.0293
     28 C          66.9583   92.3907   16.4229 C.3     1  UNL1        0.0042
     29 H          69.9330   92.1066   12.8786 H       1  UNL1        0.2103
@<TRIPOS>BOND
     1     9    10    2
     2    10    11    2
     3    10    12    1
     4    12    14    1
     5    14    15   ar
     6    15    16   ar
     7    16    17   ar
     8    17    18   ar
     9    10     1    1
    10     1     2   ar
    11     2     3   ar
    12     3     4    1
    13     3     5   ar
    14     5    19    1
    15    19    21    1
    16    22    21    1
    17    22    23    1
    18    23    24    1
    19    24    25    1
    20    25    26    1
    21    25    27    1
    22    27    28    1
    23     5     6   ar
    24     6     7   ar
    25     7     8    1
    26    18    14   ar
    27     7     1   ar
    28    28    22    1
    29    12    13    1
    30    19    20    1
    31    26    29    1
@<TRIPOS>MOLECULE
*****
 29 31 0 0 0
SMALL
GASTEIGER

@<TRIPOS>ATOM
      1 C          64.1456   91.1642   11.9669 C.ar    1  UNL1        0.1534
      2 C          63.1677   91.1548   10.8296 C.ar    1  UNL1        0.0351
      3 C          62.2120   90.0096   10.6717 C.ar    1  UNL1        0.0722
      4 CL         61.2340   90.0002    9.5343 Cl      1  UNL1       -0.0809
      5 C          62.2341   88.8737   11.6512 C.ar    1  UNL1        0.0577
      6 C          63.2120   88.8831   12.7885 C.ar    1  UNL1        0.0462
      7 C          64.1677   90.0284   12.9464 C.ar    1  UNL1        0.1602
      8 F          65.1457   90.0378   14.0838 F       1  UNL1       -0.2027
      9 O          64.7641   92.3896   13.5842 O.2     1  UNL1       -0.1498
     10 S          65.1014   92.3095   12.1249 S.O2    1  UNL1        0.0772
     11 O          65.4386   92.2294   10.6655 O.2     1  UNL1       -0.1498
     12 N          66.0571   93.4547   12.2829 N.pl3   1  UNL1       -0.1936
     13 H          66.4002   93.6900   13.1751 H       1  UNL1        0.1758
     14 C          66.4901   94.2414   11.0813 C.ar    1  UNL1        0.1786
     15 N          67.6632   93.9305   10.1998 N.ar    1  UNL1       -0.2214
     16 C          67.7242   94.9741    9.1241 C.ar    1  UNL1        0.1079
     17 C          66.5887   95.9301    9.3408 C.ar    1  UNL1        0.0588
     18 S          65.8260   95.4772   10.5505 S.2     1  UNL1       -0.0497
     19 N          61.2783   87.7285   11.4932 N.pl3   1  UNL1       -0.3319
     20 H          60.4653   87.6859   12.0467 H       1  UNL1        0.1468
     21 C          61.5613   86.6480   10.4920 C.3     1  UNL1        0.0870
     22 C          62.4601   85.5039   10.8570 C.3     1  UNL1        0.0197
     23 C          62.7540   85.2114   12.2985 C.3     1  UNL1        0.0042
     24 C          63.6528   84.0673   12.6635 C.3     1  UNL1        0.0293
     25 C          64.2576   83.2157   11.5869 C.3     1  UNL1        0.1105
     26 O          65.1565   82.0716   11.9520 O.3     1  UNL1       -0.3845
     27 C          63.9637   83.5082   10.1454 C.3     1  UNL1        0.0293
     28 C          63.0650   84.6523    9.7804 C.3     1  UNL1        0.0042
     29 H          65.2407   82.0218   12.9170 H       1  UNL1        0.2103
@<TRIPOS>BOND
     1     9    10    2
     2    10    11    2
     3    10    12    1
     4    12    14    1
     5    14    15   ar
     6    15    16   ar
     7    16    17   ar
     8    17    18   ar
     9    10     1    1
    10     1     2   ar
    11     2     3   ar
    12     3     4    1
    13     3     5   ar
    14     5    19    1
    15    19    21    1
    16    22    21    1
    17    22    23    1
    18    23    24    1
    19    24    25    1
    20    25    26    1
    21    25    27    1
    22    27    28    1
    23     5     6   ar
    24     6     7   ar
    25     7     8    1
    26    18    14   ar
    27     7     1   ar
    28    28    22    1
    29    12    13    1
    30    19    20    1
    31    26    29    1
@<TRIPOS>MOLECULE
*****
 29 31 0 0 0
SMALL
GASTEIGER

@<TRIPOS>ATOM
      1 C          64.7383   91.6480   11.9570 C.ar    1  UNL1        0.1534
      2 C          64.7553   90.6484   13.0753 C.ar    1  UNL1        0.0351
      3 C          63.7487   89.5367   13.1028 C.ar    1  UNL1        0.0722
      4 CL         63.7656   88.5371   14.2211 Cl      1  UNL1       -0.0809
      5 C          62.7252   89.4244   12.0120 C.ar    1  UNL1        0.0577
      6 C          62.7083   90.4240   10.8937 C.ar    1  UNL1        0.0462
      7 C          63.7148   91.5357   10.8662 C.ar    1  UNL1        0.1602
      8 F          63.6979   92.5353    9.7479 F       1  UNL1       -0.2027
      9 O          66.1843   92.3281   10.5618 O.2     1  UNL1       -0.1498
     10 S          65.7449   92.7598   11.9295 S.O2    1  UNL1        0.0772
     11 O          65.3056   93.1915   13.2971 O.2     1  UNL1       -0.1498
     12 N          66.7515   93.8716   11.9019 N.pl3   1  UNL1       -0.1936
     13 H          67.4024   93.9645   12.6346 H       1  UNL1        0.1758
     14 C          66.7662   94.8418   10.7580 C.ar    1  UNL1        0.1786
     15 N          67.7929   94.9021    9.6661 N.ar    1  UNL1       -0.2214
     16 C          67.4180   96.0196    8.7385 C.ar    1  UNL1        0.1079
     17 C          66.1595   96.6500    9.2570 C.ar    1  UNL1        0.0588
     18 S          65.7566   95.9221   10.5052 S.2     1  UNL1       -0.0497
     19 N          61.7186   88.3126   12.0395 N.pl3   1  UNL1       -0.3319
     20 H          61.1967   88.1412   12.8565 H       1  UNL1        0.1468
     21 C          61.5073   87.4619   10.8223 C.3     1  UNL1        0.0870
     22 C          62.2545   86.1700   10.6711 C.3     1  UNL1        0.0197
     23 C          62.6418   85.6829    9.3064 C.3     1  UNL1        0.0042
     24 C          63.3889   84.3910    9.1553 C.3     1  UNL1        0.0293
     25 C          63.7487   83.5863   10.3690 C.3     1  UNL1        0.1105
     26 O          64.4959   82.2944   10.2178 O.3     1  UNL1       -0.3845
     27 C          63.3614   84.0735   11.7337 C.3     1  UNL1        0.0293
     28 C          62.6143   85.3653   11.8848 C.3     1  UNL1        0.0042
     29 H          64.6666   82.1277    9.2776 H       1  UNL1        0.2103
@<TRIPOS>BOND
     1     9    10    2
     2    10    11    2
     3    10    12    1
     4    12    14    1
     5    14    15   ar
     6    15    16   ar
     7    16    17   ar
     8    17    18   ar
     9    10     1    1
    10     1     2   ar
    11     2     3   ar
    12     3     4    1
    13     3     5   ar
    14     5    19    1
    15    19    21    1
    16    22    21    1
    17    22    23    1
    18    23    24    1
    19    24    25    1
    20    25    26    1
    21    25    27    1
    22    27    28    1
    23     5     6   ar
    24     6     7   ar
    25     7     8    1
    26    18    14   ar
    27     7     1   ar
    28    28    22    1
    29    12    13    1
    30    19    20    1
    31    26    29    1
@<TRIPOS>MOLECULE
*****
 29 31 0 0 0
SMALL
GASTEIGER

@<TRIPOS>ATOM
      1 C          64.8806   91.7374   11.9325 C.ar    1  UNL1        0.1534
      2 C          64.9031   90.7571   13.0676 C.ar    1  UNL1        0.0351
      3 C          63.9162   89.6281   13.1031 C.ar    1  UNL1        0.0722
      4 CL         63.9387   88.6477   14.2383 Cl      1  UNL1       -0.0809
      5 C          62.9068   89.4793   12.0036 C.ar    1  UNL1        0.0577
      6 C          62.8843   90.4596   10.8685 C.ar    1  UNL1        0.0462
      7 C          63.8711   91.5887   10.8329 C.ar    1  UNL1        0.1602
      8 F          63.8486   92.5690    9.6978 F       1  UNL1       -0.2027
      9 O          66.3691   92.3861   10.5674 O.2     1  UNL1       -0.1498
     10 S          65.8675   92.8665   11.8968 S.O2    1  UNL1        0.0772
     11 O          65.3658   93.3470   13.2263 O.2     1  UNL1       -0.1498
     12 N          66.8543   93.9956   11.8612 N.pl3   1  UNL1       -0.1936
     13 H          67.5314   94.0801   12.5709 H       1  UNL1        0.1758
     14 C          66.8096   94.9958   10.7442 C.ar    1  UNL1        0.1786
     15 N          67.8757   95.2126    9.7116 N.ar    1  UNL1       -0.2214
     16 C          67.4159   96.3056    8.7930 C.ar    1  UNL1        0.1079
     17 C          66.0655   96.7644    9.2579 C.ar    1  UNL1        0.0588
     18 S          65.6908   95.9549   10.4639 S.2     1  UNL1       -0.0497
     19 N          61.9199   88.3502   12.0392 N.pl3   1  UNL1       -0.3319
     20 H          62.0072   87.6413   12.7168 H       1  UNL1        0.1468
     21 C          60.8000   88.3012   11.0426 C.3     1  UNL1        0.0870
     22 C          60.8915   87.3882    9.8559 C.3     1  UNL1        0.0197
     23 C          59.7119   87.2227    8.9442 C.3     1  UNL1        0.0042
     24 C          59.8034   86.3097    7.7577 C.3     1  UNL1        0.0293
     25 C          61.0745   85.5622    7.4827 C.3     1  UNL1        0.1105
     26 O          61.1660   84.6492    6.2961 O.3     1  UNL1       -0.3845
     27 C          62.2541   85.7277    8.3944 C.3     1  UNL1        0.0293
     28 C          62.1626   86.6407    9.5810 C.3     1  UNL1        0.0042
     29 H          60.3231   84.6573    5.8162 H       1  UNL1        0.2103
@<TRIPOS>BOND
     1     9    10    2
     2    10    11    2
     3    10    12    1
     4    12    14    1
     5    14    15   ar
     6    15    16   ar
     7    16    17   ar
     8    17    18   ar
     9    10     1    1
    10     1     2   ar
    11     2     3   ar
    12     3     4    1
    13     3     5   ar
    14     5    19    1
    15    19    21    1
    16    22    21    1
    17    22    23    1
    18    23    24    1
    19    24    25    1
    20    25    26    1
    21    25    27    1
    22    27    28    1
    23     5     6   ar
    24     6     7   ar
    25     7     8    1
    26    18    14   ar
    27     7     1   ar
    28    28    22    1
    29    12    13    1
    30    19    20    1
    31    26    29    1
@<TRIPOS>MOLECULE
*****
 29 31 0 0 0
SMALL
GASTEIGER

@<TRIPOS>ATOM
      1 C          63.7787   91.0948   11.7568 C.ar    1  UNL1        0.1534
      2 C          62.7270   91.0252   10.6896 C.ar    1  UNL1        0.0351
      3 C          61.8070   89.8426   10.6193 C.ar    1  UNL1        0.0722
      4 CL         60.7552   89.7730    9.5521 Cl      1  UNL1       -0.0809
      5 C          61.9387   88.7296   11.6163 C.ar    1  UNL1        0.0577
      6 C          62.9904   88.7992   12.6835 C.ar    1  UNL1        0.0462
      7 C          63.9104   89.9818   12.7538 C.ar    1  UNL1        0.1602
      8 F          64.9622   90.0514   13.8210 F       1  UNL1       -0.2027
      9 O          64.7320   92.3407   10.3289 O.2     1  UNL1       -0.1498
     10 S          64.6989   92.2774   11.8272 S.O2    1  UNL1        0.0772
     11 O          64.6657   92.2142   13.3254 O.2     1  UNL1       -0.1498
     12 N          65.6189   93.4600   11.8974 N.pl3   1  UNL1       -0.1936
     13 H          65.5436   94.0987   12.6429 H       1  UNL1        0.1758
     14 C          66.6538   93.6695   10.8319 C.ar    1  UNL1        0.1786
     15 N          67.7339   92.7015   10.4494 N.ar    1  UNL1       -0.2214
     16 C          68.5379   93.3176    9.3430 C.ar    1  UNL1        0.1079
     17 C          67.9546   94.6664    9.0417 C.ar    1  UNL1        0.0588
     18 S          66.7901   94.8838    9.9620 S.2     1  UNL1       -0.0497
     19 N          61.0186   87.5470   11.5459 N.pl3   1  UNL1       -0.3319
     20 H          60.0571   87.6601   11.7248 H       1  UNL1        0.1468
     21 C          61.5634   86.1922   11.2031 C.3     1  UNL1        0.0870
     22 C          61.7005   85.7802    9.7673 C.3     1  UNL1        0.0197
     23 C          62.9405   85.0745    9.3046 C.3     1  UNL1        0.0042
     24 C          63.0775   84.6626    7.8688 C.3     1  UNL1        0.0293
     25 C          61.9745   84.9564    6.8957 C.3     1  UNL1        0.1105
     26 O          62.1115   84.5444    5.4599 O.3     1  UNL1       -0.3845
     27 C          60.7344   85.6621    7.3584 C.3     1  UNL1        0.0293
     28 C          60.5974   86.0740    8.7942 C.3     1  UNL1        0.0042
     29 H          62.9658   84.1038    5.3301 H       1  UNL1        0.2103
@<TRIPOS>BOND
     1     9    10    2
     2    10    11    2
     3    10    12    1
     4    12    14    1
     5    14    15   ar
     6    15    16   ar
     7    16    17   ar
     8    17    18   ar
     9    10     1    1
    10     1     2   ar
    11     2     3   ar
    12     3     4    1
    13     3     5   ar
    14     5    19    1
    15    19    21    1
    16    22    21    1
    17    22    23    1
    18    23    24    1
    19    24    25    1
    20    25    26    1
    21    25    27    1
    22    27    28    1
    23     5     6   ar
    24     6     7   ar
    25     7     8    1
    26    18    14   ar
    27     7     1   ar
    28    28    22    1
    29    12    13    1
    30    19    20    1
    31    26    29    1
@<TRIPOS>MOLECULE
*****
 29 31 0 0 0
SMALL
GASTEIGER

@<TRIPOS>ATOM
      1 C          62.5534   89.7651   11.9121 C.ar    1  UNL1        0.1534
      2 C          63.1127   89.7623   13.3039 C.ar    1  UNL1        0.0351
      3 C          64.1841   90.7410   13.6835 C.ar    1  UNL1        0.0722
      4 CL         64.7434   90.7383   15.0754 Cl      1  UNL1       -0.0809
      5 C          64.6962   91.7225   12.6714 C.ar    1  UNL1        0.0577
      6 C          64.1369   91.7253   11.2796 C.ar    1  UNL1        0.0462
      7 C          63.0655   90.7466   10.8999 C.ar    1  UNL1        0.1602
      8 F          62.5061   90.7493    9.5081 F       1  UNL1       -0.2027
      9 O          62.5098   87.9188   10.8683 O.2     1  UNL1       -0.1498
     10 S          61.4819   88.7863   11.5324 S.O2    1  UNL1        0.0772
     11 O          60.4541   89.6538   12.1964 O.2     1  UNL1       -0.1498
     12 N          60.4106   87.8076   11.1526 N.pl3   1  UNL1       -0.1936
     13 H          59.9708   87.2653   11.8467 H       1  UNL1        0.1758
     14 C          60.0093   87.6550    9.7153 C.ar    1  UNL1        0.1786
     15 N          59.7887   86.3583    8.9944 N.ar    1  UNL1       -0.2214
     16 C          59.4013   86.6743    7.5802 C.ar    1  UNL1        0.1079
     17 C          59.3823   88.1664    7.4271 C.ar    1  UNL1        0.0588
     18 S          59.7582   88.7725    8.7467 S.2     1  UNL1       -0.0497
     19 N          65.7676   92.7013   13.0511 N.pl3   1  UNL1       -0.3319
     20 H          65.7006   93.2010   13.8967 H       1  UNL1        0.1468
     21 C          66.9411   92.9186   12.1425 C.3     1  UNL1        0.0870
     22 C          66.8442   93.9029   11.0147 C.3     1  UNL1        0.0197
     23 C          67.4898   93.5980    9.6956 C.3     1  UNL1        0.0042
     24 C          67.3930   94.5823    8.5679 C.3     1  UNL1        0.0293
     25 C          66.6505   95.8715    8.7593 C.3     1  UNL1        0.1105
     26 O          66.5536   96.8558    7.6315 O.3     1  UNL1       -0.3845
     27 C          66.0049   96.1764   10.0785 C.3     1  UNL1        0.0293
     28 C          66.1017   95.1922   11.2062 C.3     1  UNL1        0.0042
     29 H          67.0214   96.5069    6.8567 H       1  UNL1        0.2103
@<TRIPOS>BOND
     1     9    10    2
     2    10    11    2
     3    10    12    1
     4    12    14    1
     5    14    15   ar
     6    15    16   ar
     7    16    17   ar
     8    17    18   ar
     9    10     1    1
    10     1     2   ar
    11     2     3   ar
    12     3     4    1
    13     3     5   ar
    14     5    19    1
    15    19    21    1
    16    22    21    1
    17    22    23    1
    18    23    24    1
    19    24    25    1
    20    25    26    1
    21    25    27    1
    22    27    28    1
    23     5     6   ar
    24     6     7   ar
    25     7     8    1
    26    18    14   ar
    27     7     1   ar
    28    28    22    1
    29    12    13    1
    30    19    20    1
    31    26    29    1
@<TRIPOS>MOLECULE
*****
 29 31 0 0 0
SMALL
GASTEIGER

@<TRIPOS>ATOM
      1 C          63.1200   85.7325   12.9816 C.ar    1  UNL1        0.1534
      2 C          62.3393   85.6968   11.7012 C.ar    1  UNL1        0.0351
      3 C          62.1312   86.9567   10.9144 C.ar    1  UNL1        0.0722
      4 CL         61.3505   86.9211    9.6340 Cl      1  UNL1       -0.0809
      5 C          62.7037   88.2524   11.4079 C.ar    1  UNL1        0.0577
      6 C          63.4843   88.2881   12.6882 C.ar    1  UNL1        0.0462
      7 C          63.6924   87.0282   13.4751 C.ar    1  UNL1        0.1602
      8 F          64.4731   87.0638   14.7555 F       1  UNL1       -0.2027
      9 O          64.4465   84.0825   12.8481 O.2     1  UNL1       -0.1498
     10 S          63.3281   84.4725   13.7685 S.O2    1  UNL1        0.0772
     11 O          62.2098   84.8625   14.6888 O.2     1  UNL1       -0.1498
     12 N          63.5364   83.2126   14.5553 N.pl3   1  UNL1       -0.1936
     13 H          64.1677   83.2026   15.3106 H       1  UNL1        0.1758
     14 C          62.7826   81.9678   14.1913 C.ar    1  UNL1        0.1786
     15 N          61.3535   81.6698   14.5359 N.ar    1  UNL1       -0.2214
     16 C          61.0134   80.3203   13.9764 C.ar    1  UNL1        0.1079
     17 C          62.2323   79.7842   13.2859 C.ar    1  UNL1        0.0588
     18 S          63.3258   80.8024   13.4187 S.2     1  UNL1       -0.0497
     19 N          62.4955   89.5124   10.6210 N.pl3   1  UNL1       -0.3319
     20 H          62.3357   89.4660    9.6507 H       1  UNL1        0.1468
     21 C          62.5307   90.8430   11.3125 C.3     1  UNL1        0.0870
     22 C          63.8301   91.3852   11.8299 C.3     1  UNL1        0.0197
     23 C          64.1869   91.2236   13.2778 C.3     1  UNL1        0.0042
     24 C          65.4862   91.7658   13.7951 C.3     1  UNL1        0.0293
     25 C          66.4289   92.4696   12.8644 C.3     1  UNL1        0.1105
     26 O          67.7283   93.0118   13.3818 O.3     1  UNL1       -0.3845
     27 C          66.0722   92.6312   11.4165 C.3     1  UNL1        0.0293
     28 C          64.7728   92.0890   10.8992 C.3     1  UNL1        0.0042
     29 H          67.8021   92.8241   14.3306 H       1  UNL1        0.2103
@<TRIPOS>BOND
     1     9    10    2
     2    10    11    2
     3    10    12    1
     4    12    14    1
     5    14    15   ar
     6    15    16   ar
     7    16    17   ar
     8    17    18   ar
     9    10     1    1
    10     1     2   ar
    11     2     3   ar
    12     3     4    1
    13     3     5   ar
    14     5    19    1
    15    19    21    1
    16    22    21    1
    17    22    23    1
    18    23    24    1
    19    24    25    1
    20    25    26    1
    21    25    27    1
    22    27    28    1
    23     5     6   ar
    24     6     7   ar
    25     7     8    1
    26    18    14   ar
    27     7     1   ar
    28    28    22    1
    29    12    13    1
    30    19    20    1
    31    26    29    1
@<TRIPOS>MOLECULE
*****
 29 31 0 0 0
SMALL
GASTEIGER

@<TRIPOS>ATOM
      1 C          64.3103   90.4118   13.1490 C.ar    1  UNL1        0.1534
      2 C          64.5144   89.1558   13.9430 C.ar    1  UNL1        0.0351
      3 C          63.8162   87.8912   13.5389 C.ar    1  UNL1        0.0722
      4 CL         64.0203   86.6350   14.3329 Cl      1  UNL1       -0.0809
      5 C          62.9139   87.8828   12.3406 C.ar    1  UNL1        0.0577
      6 C          62.7098   89.1389   11.5466 C.ar    1  UNL1        0.0462
      7 C          63.4080   90.4034   11.9508 C.ar    1  UNL1        0.1602
      8 F          63.2039   91.6596   11.1567 F       1  UNL1       -0.2027
      9 O          65.6800   91.7340   12.2131 O.2     1  UNL1       -0.1498
     10 S          65.0085   91.6765   13.5532 S.O2    1  UNL1        0.0772
     11 O          64.3371   91.6189   14.8933 O.2     1  UNL1       -0.1498
     12 N          65.7067   92.9410   13.9573 N.pl3   1  UNL1       -0.1936
     13 H          65.2653   93.8110   13.8249 H       1  UNL1        0.1758
     14 C          67.0776   92.8802   14.5632 C.ar    1  UNL1        0.1786
     15 N          68.3507   92.5675   13.8343 N.ar    1  UNL1       -0.2214
     16 C          69.4759   92.6153   14.8250 C.ar    1  UNL1        0.1079
     17 C          68.8982   92.9576   16.1664 C.ar    1  UNL1        0.0588
     18 S          67.4159   93.1213   16.0046 S.2     1  UNL1       -0.0497
     19 N          62.2157   86.6181   11.9364 N.pl3   1  UNL1       -0.3319
     20 H          62.4717   85.7613   12.3483 H       1  UNL1        0.1468
     21 C          61.1276   86.6590   10.9049 C.3     1  UNL1        0.0870
     22 C          61.3674   86.0880    9.5386 C.3     1  UNL1        0.0197
     23 C          62.6927   85.4688    9.2067 C.3     1  UNL1        0.0042
     24 C          62.9325   84.8978    7.8405 C.3     1  UNL1        0.0293
     25 C          61.8471   84.9462    6.8063 C.3     1  UNL1        0.1105
     26 O          62.0870   84.3752    5.4400 O.3     1  UNL1       -0.3845
     27 C          60.5219   85.5654    7.1383 C.3     1  UNL1        0.0293
     28 C          60.2820   86.1364    8.5044 C.3     1  UNL1        0.0042
     29 H          62.9872   84.0171    5.3928 H       1  UNL1        0.2103
@<TRIPOS>BOND
     1     9    10    2
     2    10    11    2
     3    10    12    1
     4    12    14    1
     5    14    15   ar
     6    15    16   ar
     7    16    17   ar
     8    17    18   ar
     9    10     1    1
    10     1     2   ar
    11     2     3   ar
    12     3     4    1
    13     3     5   ar
    14     5    19    1
    15    19    21    1
    16    22    21    1
    17    22    23    1
    18    23    24    1
    19    24    25    1
    20    25    26    1
    21    25    27    1
    22    27    28    1
    23     5     6   ar
    24     6     7   ar
    25     7     8    1
    26    18    14   ar
    27     7     1   ar
    28    28    22    1
    29    12    13    1
    30    19    20    1
    31    26    29    1
