@<TRIPOS>MOLECULE
*****
 26 29 0 0 0
SMALL
GASTEIGER

@<TRIPOS>ATOM
      1 C          63.3365   82.9824   10.9984 C.3     1  UNL1        0.0326
      2 C          63.3118   84.2907   11.7315 C.ar    1  UNL1       -0.0037
      3 C          64.0231   84.4281   13.0449 C.ar    1  UNL1        0.0086
      4 C          63.9985   85.7365   13.7781 C.ar    1  UNL1        0.0574
      5 CL         64.7098   85.8738   15.0915 Cl      1  UNL1       -0.0823
      6 C          63.2624   86.9076   13.1978 C.ar    1  UNL1        0.0126
      7 C          62.5510   86.7702   11.8843 C.ar    1  UNL1        0.0163
      8 C          61.8150   87.9414   11.3040 C.2     1  UNL1        0.0109
      9 C          61.1036   87.8041    9.9906 C.2     1  UNL1        0.0386
     10 C          60.3012   88.7760    9.1773 C.2     1  UNL1        0.0801
     11 C          60.0195   90.2048    9.5367 C.3     1  UNL1        0.0538
     12 N          59.8300   88.0683    7.9415 N.2     1  UNL1       -0.1551
     13 N          60.3412   86.6589    7.9911 N.2     1  UNL1       -0.1469
     14 C          61.1283   86.4956    9.2575 C.3     1  UNL1        0.2503
     15 N          61.8644   85.3245    9.8378 N.2     1  UNL1       -0.2427
     16 C          62.5757   85.4619   11.1512 C.ar    1  UNL1        0.0743
     17 C          61.7903   89.2498   12.0372 C.3     1  UNL1        0.1551
     18 O          60.6081   89.6112   12.8867 O.3     1  UNL1       -0.3756
     19 H          59.9545   88.8953   12.8527 H       1  UNL1        0.2112
     20 C          62.9478   90.1967   11.9208 C.ar    1  UNL1        0.0138
     21 C          63.2067   90.9092   10.6265 C.ar    1  UNL1        0.0192
     22 C          64.3642   91.8561   10.5101 C.ar    1  UNL1        0.1011
     23 N          65.2629   92.0904   11.6881 N.ar    1  UNL1       -0.2165
     24 C          65.0039   91.3778   12.9824 C.ar    1  UNL1        0.2221
     25 F          65.9026   91.6122   14.1604 F       1  UNL1       -0.1832
     26 C          63.8464   90.4310   13.0987 C.ar    1  UNL1        0.0481
@<TRIPOS>BOND
     1     1     2    1
     2     2     3   ar
     3     3     4   ar
     4     4     5    1
     5     4     6   ar
     6     6     7   ar
     7     7     8    2
     8     8    17    1
     9    17    18    1
    10    17    20    1
    11    20    21   ar
    12    21    22   ar
    13    22    23   ar
    14    23    24   ar
    15    24    25    1
    16    24    26   ar
    17     8     9    1
    18     9    10    2
    19    10    11    1
    20    10    12    1
    21    12    13    2
    22    13    14    1
    23    14    15    1
    24    15    16    2
    25    16     2   ar
    26    16     7   ar
    27    26    20   ar
    28    14     9    1
    29    18    19    1
@<TRIPOS>MOLECULE
*****
 26 29 0 0 0
SMALL
GASTEIGER

@<TRIPOS>ATOM
      1 C          60.5215   89.9217   10.3202 C.3     1  UNL1        0.0326
      2 C          60.8748   88.4844   10.0772 C.ar    1  UNL1       -0.0037
      3 C          60.3127   87.7648    8.8871 C.ar    1  UNL1        0.0086
      4 C          60.6659   86.3273    8.6440 C.ar    1  UNL1        0.0574
      5 CL         60.1039   85.6077    7.4540 Cl      1  UNL1       -0.0823
      6 C          61.5813   85.6095    9.5910 C.ar    1  UNL1        0.0126
      7 C          62.1434   86.3291   10.7812 C.ar    1  UNL1        0.0163
      8 C          63.0588   85.6112   11.7282 C.2     1  UNL1        0.0109
      9 C          63.6208   86.3308   12.9183 C.2     1  UNL1        0.0386
     10 C          64.5412   85.8875   14.0166 C.2     1  UNL1        0.0801
     11 C          65.1408   84.5208   14.1667 C.3     1  UNL1        0.0538
     12 N          64.7568   87.0510   14.9385 N.2     1  UNL1       -0.1551
     13 N          63.9696   88.2133   14.4099 N.2     1  UNL1       -0.1469
     14 C          63.2675   87.7682   13.1613 C.3     1  UNL1        0.2503
     15 N          62.3522   88.4860   12.2143 N.2     1  UNL1       -0.2427
     16 C          61.7902   87.7664   11.0242 C.ar    1  UNL1        0.0743
     17 C          63.4120   84.1738   11.4851 C.3     1  UNL1        0.1551
     18 O          64.3327   83.8079   10.3589 O.3     1  UNL1       -0.3756
     19 H          64.6066   84.6122    9.8909 H       1  UNL1        0.2112
     20 C          62.8444   83.1023   12.3682 C.ar    1  UNL1        0.0138
     21 C          62.1915   83.4692   13.6678 C.ar    1  UNL1        0.0192
     22 C          61.6240   82.3977   14.5508 C.ar    1  UNL1        0.1011
     23 N          61.7094   80.9592   14.1342 N.ar    1  UNL1       -0.2165
     24 C          62.3624   80.5923   12.8346 C.ar    1  UNL1        0.2221
     25 F          62.4478   79.1538   12.4181 F       1  UNL1       -0.1832
     26 C          62.9299   81.6638   11.9516 C.ar    1  UNL1        0.0481
@<TRIPOS>BOND
     1     1     2    1
     2     2     3   ar
     3     3     4   ar
     4     4     5    1
     5     4     6   ar
     6     6     7   ar
     7     7     8    2
     8     8    17    1
     9    17    18    1
    10    17    20    1
    11    20    21   ar
    12    21    22   ar
    13    22    23   ar
    14    23    24   ar
    15    24    25    1
    16    24    26   ar
    17     8     9    1
    18     9    10    2
    19    10    11    1
    20    10    12    1
    21    12    13    2
    22    13    14    1
    23    14    15    1
    24    15    16    2
    25    16     2   ar
    26    16     7   ar
    27    26    20   ar
    28    14     9    1
    29    18    19    1
@<TRIPOS>MOLECULE
*****
 26 29 0 0 0
SMALL
GASTEIGER

@<TRIPOS>ATOM
      1 C          67.5723   92.9259   10.4541 C.3     1  UNL1        0.0326
      2 C          67.1759   92.4787   11.8299 C.ar    1  UNL1       -0.0037
      3 C          68.1321   92.6370   12.9746 C.ar    1  UNL1        0.0086
      4 C          67.7357   92.1898   14.3505 C.ar    1  UNL1        0.0574
      5 CL         68.6919   92.3480   15.4952 Cl      1  UNL1       -0.0823
      6 C          66.3829   91.5843   14.5815 C.ar    1  UNL1        0.0126
      7 C          65.4266   91.4260   13.4367 C.ar    1  UNL1        0.0163
      8 C          64.0737   90.8205   13.6678 C.2     1  UNL1        0.0109
      9 C          63.1175   90.6623   12.5230 C.2     1  UNL1        0.0386
     10 C          61.7270   90.1047   12.4465 C.2     1  UNL1        0.0801
     11 C          60.9380   89.5432   13.5919 C.3     1  UNL1        0.0538
     12 N          61.2642   90.2074   11.0234 N.2     1  UNL1       -0.1551
     13 N          62.3686   90.8283   10.2204 N.2     1  UNL1       -0.1469
     14 C          63.5140   91.1095   11.1472 C.3     1  UNL1        0.2503
     15 N          64.8668   91.7150   10.9162 N.2     1  UNL1       -0.2427
     16 C          65.8230   91.8732   12.0610 C.ar    1  UNL1        0.0743
     17 C          63.6773   90.3734   15.0436 C.3     1  UNL1        0.1551
     18 O          63.2653   91.3852   16.0714 O.3     1  UNL1       -0.3756
     19 H          63.3106   92.2743   15.6862 H       1  UNL1        0.2112
     20 C          63.6928   88.9144   15.3916 C.ar    1  UNL1        0.0138
     21 C          64.3109   87.9250   14.4487 C.ar    1  UNL1        0.0192
     22 C          64.3264   86.4660   14.7968 C.ar    1  UNL1        0.1011
     23 N          63.7238   85.9965   16.0876 N.ar    1  UNL1       -0.2165
     24 C          63.1057   86.9859   17.0305 C.ar    1  UNL1        0.2221
     25 F          62.5030   86.5162   18.3214 F       1  UNL1       -0.1832
     26 C          63.0902   88.4448   16.6825 C.ar    1  UNL1        0.0481
@<TRIPOS>BOND
     1     1     2    1
     2     2     3   ar
     3     3     4   ar
     4     4     5    1
     5     4     6   ar
     6     6     7   ar
     7     7     8    2
     8     8    17    1
     9    17    18    1
    10    17    20    1
    11    20    21   ar
    12    21    22   ar
    13    22    23   ar
    14    23    24   ar
    15    24    25    1
    16    24    26   ar
    17     8     9    1
    18     9    10    2
    19    10    11    1
    20    10    12    1
    21    12    13    2
    22    13    14    1
    23    14    15    1
    24    15    16    2
    25    16     2   ar
    26    16     7   ar
    27    26    20   ar
    28    14     9    1
    29    18    19    1
@<TRIPOS>MOLECULE
*****
 26 29 0 0 0
SMALL
GASTEIGER

@<TRIPOS>ATOM
      1 C          60.9373   86.4758    9.0953 C.3     1  UNL1        0.0326
      2 C          61.7648   86.9128   10.2675 C.ar    1  UNL1       -0.0037
      3 C          62.0476   88.3698   10.4843 C.ar    1  UNL1        0.0086
      4 C          62.8751   88.8070   11.6566 C.ar    1  UNL1        0.0574
      5 CL         63.1579   90.2640   11.8734 Cl      1  UNL1       -0.0823
      6 C          63.4198   87.7870   12.6120 C.ar    1  UNL1        0.0126
      7 C          63.1370   86.3298   12.3952 C.ar    1  UNL1        0.0163
      8 C          63.6817   85.3098   13.3507 C.2     1  UNL1        0.0109
      9 C          63.3989   83.8528   13.1339 C.2     1  UNL1        0.0386
     10 C          63.7984   82.6277   13.9017 C.2     1  UNL1        0.0801
     11 C          64.6322   82.6014   15.1484 C.3     1  UNL1        0.0538
     12 N          63.2178   81.4336   13.2040 N.2     1  UNL1       -0.1551
     13 N          62.4595   81.9206   12.0049 N.2     1  UNL1       -0.1469
     14 C          62.5714   83.4158   11.9616 C.3     1  UNL1        0.2503
     15 N          62.0267   84.4358   11.0061 N.2     1  UNL1       -0.2427
     16 C          62.3095   85.8928   11.2230 C.ar    1  UNL1        0.0743
     17 C          64.5093   85.7469   14.5230 C.3     1  UNL1        0.1551
     18 O          65.9846   85.4769   14.5418 O.3     1  UNL1       -0.3756
     19 H          66.2394   85.0159   13.7272 H       1  UNL1        0.2112
     20 C          63.8614   86.4540   15.6763 C.ar    1  UNL1        0.0138
     21 C          63.2104   85.6623   16.7715 C.ar    1  UNL1        0.0192
     22 C          62.5625   86.3695   17.9248 C.ar    1  UNL1        0.1011
     23 N          62.5657   87.8684   17.9830 N.ar    1  UNL1       -0.2165
     24 C          63.2167   88.6601   16.8878 C.ar    1  UNL1        0.2221
     25 F          63.2199   90.1590   16.9461 F       1  UNL1       -0.1832
     26 C          63.8646   87.9529   15.7345 C.ar    1  UNL1        0.0481
@<TRIPOS>BOND
     1     1     2    1
     2     2     3   ar
     3     3     4   ar
     4     4     5    1
     5     4     6   ar
     6     6     7   ar
     7     7     8    2
     8     8    17    1
     9    17    18    1
    10    17    20    1
    11    20    21   ar
    12    21    22   ar
    13    22    23   ar
    14    23    24   ar
    15    24    25    1
    16    24    26   ar
    17     8     9    1
    18     9    10    2
    19    10    11    1
    20    10    12    1
    21    12    13    2
    22    13    14    1
    23    14    15    1
    24    15    16    2
    25    16     2   ar
    26    16     7   ar
    27    26    20   ar
    28    14     9    1
    29    18    19    1
@<TRIPOS>MOLECULE
*****
 26 29 0 0 0
SMALL
GASTEIGER

@<TRIPOS>ATOM
      1 C          63.6173   90.8615    3.3212 C.3     1  UNL1        0.0326
      2 C          62.3419   91.6327    3.1529 C.ar    1  UNL1       -0.0037
      3 C          61.2224   91.4544    4.1352 C.ar    1  UNL1        0.0086
      4 C          59.9468   92.2256    3.9669 C.ar    1  UNL1        0.0574
      5 CL         58.8274   92.0473    4.9492 Cl      1  UNL1       -0.0823
      6 C          59.7908   93.1752    2.8163 C.ar    1  UNL1        0.0126
      7 C          60.9104   93.3535    1.8339 C.ar    1  UNL1        0.0163
      8 C          60.7543   94.3031    0.6832 C.2     1  UNL1        0.0109
      9 C          61.8738   94.4814   -0.2991 C.2     1  UNL1        0.0386
     10 C          62.0086   95.3391   -1.5223 C.2     1  UNL1        0.0801
     11 C          60.9675   96.2738   -2.0629 C.3     1  UNL1        0.0538
     12 N          63.3675   95.0979   -2.1099 N.2     1  UNL1       -0.1551
     13 N          64.0724   94.0912   -1.2499 N.2     1  UNL1       -0.1469
     14 C          63.1493   93.7102   -0.1308 C.3     1  UNL1        0.2503
     15 N          63.3053   92.7606    1.0199 N.2     1  UNL1       -0.2427
     16 C          62.1858   92.5823    2.0022 C.ar    1  UNL1        0.0743
     17 C          59.4788   95.0744    0.5150 C.3     1  UNL1        0.1551
     18 O          59.3092   96.4008    1.1946 O.3     1  UNL1       -0.3756
     19 H          60.1109   96.6106    1.6987 H       1  UNL1        0.2112
     20 C          58.3729   94.5191   -0.3328 C.ar    1  UNL1        0.0138
     21 C          58.1978   93.0348   -0.4594 C.ar    1  UNL1        0.0192
     22 C          57.0919   92.4797   -1.3072 C.ar    1  UNL1        0.1011
     23 N          56.1611   93.4089   -2.0285 N.ar    1  UNL1       -0.2165
     24 C          56.3362   94.8932   -1.9019 C.ar    1  UNL1        0.2221
     25 F          55.4054   95.8224   -2.6232 F       1  UNL1       -0.1832
     26 C          57.4421   95.4484   -1.0541 C.ar    1  UNL1        0.0481
@<TRIPOS>BOND
     1     1     2    1
     2     2     3   ar
     3     3     4   ar
     4     4     5    1
     5     4     6   ar
     6     6     7   ar
     7     7     8    2
     8     8    17    1
     9    17    18    1
    10    17    20    1
    11    20    21   ar
    12    21    22   ar
    13    22    23   ar
    14    23    24   ar
    15    24    25    1
    16    24    26   ar
    17     8     9    1
    18     9    10    2
    19    10    11    1
    20    10    12    1
    21    12    13    2
    22    13    14    1
    23    14    15    1
    24    15    16    2
    25    16     2   ar
    26    16     7   ar
    27    26    20   ar
    28    14     9    1
    29    18    19    1
@<TRIPOS>MOLECULE
*****
 26 29 0 0 0
SMALL
GASTEIGER

@<TRIPOS>ATOM
      1 C          64.9342   85.6450   15.1036 C.3     1  UNL1        0.0326
      2 C          64.0263   85.2818   13.9662 C.ar    1  UNL1       -0.0037
      3 C          63.6862   83.8439   13.7078 C.ar    1  UNL1        0.0086
      4 C          62.7782   83.4805   12.5704 C.ar    1  UNL1        0.0574
      5 CL         62.4381   82.0426   12.3120 Cl      1  UNL1       -0.0823
      6 C          62.2103   84.5552   11.6914 C.ar    1  UNL1        0.0126
      7 C          62.5504   85.9932   11.9499 C.ar    1  UNL1        0.0163
      8 C          61.9825   87.0678   11.0708 C.2     1  UNL1        0.0109
      9 C          62.3226   88.5057   11.3292 C.2     1  UNL1        0.0386
     10 C          61.9169   89.7731   10.6369 C.2     1  UNL1        0.0801
     11 C          61.0128   89.8758    9.4445 C.3     1  UNL1        0.0538
     12 N          62.5742   90.9196   11.3465 N.2     1  UNL1       -0.1551
     13 N          63.3860   90.3608   12.4773 N.2     1  UNL1       -0.1469
     14 C          63.2306   88.8690   12.4666 C.3     1  UNL1        0.2503
     15 N          63.7984   87.7943   13.3456 N.2     1  UNL1       -0.2427
     16 C          63.4583   86.3564   13.0872 C.ar    1  UNL1        0.0743
     17 C          61.0745   86.7045    9.9334 C.3     1  UNL1        0.1551
     18 O          59.6256   87.0898    9.9780 O.3     1  UNL1       -0.3756
     19 H          59.4424   87.5642   10.8040 H       1  UNL1        0.2112
     20 C          61.6156   85.9559    8.7515 C.ar    1  UNL1        0.0138
     21 C          63.0922   85.7274    8.6203 C.ar    1  UNL1        0.0192
     22 C          63.6332   84.9788    7.4384 C.ar    1  UNL1        0.1011
     23 N          62.6975   84.4587    6.3877 N.ar    1  UNL1       -0.2165
     24 C          61.2208   84.6873    6.5189 C.ar    1  UNL1        0.2221
     25 F          60.2852   84.1672    5.4681 F       1  UNL1       -0.1832
     26 C          60.6799   85.4359    7.7008 C.ar    1  UNL1        0.0481
@<TRIPOS>BOND
     1     1     2    1
     2     2     3   ar
     3     3     4   ar
     4     4     5    1
     5     4     6   ar
     6     6     7   ar
     7     7     8    2
     8     8    17    1
     9    17    18    1
    10    17    20    1
    11    20    21   ar
    12    21    22   ar
    13    22    23   ar
    14    23    24   ar
    15    24    25    1
    16    24    26   ar
    17     8     9    1
    18     9    10    2
    19    10    11    1
    20    10    12    1
    21    12    13    2
    22    13    14    1
    23    14    15    1
    24    15    16    2
    25    16     2   ar
    26    16     7   ar
    27    26    20   ar
    28    14     9    1
    29    18    19    1
@<TRIPOS>MOLECULE
*****
 26 29 0 0 0
SMALL
GASTEIGER

@<TRIPOS>ATOM
      1 C          60.7379   85.0583    7.4085 C.3     1  UNL1        0.0326
      2 C          60.6986   86.3932    8.0914 C.ar    1  UNL1       -0.0037
      3 C          59.9716   87.5403    7.4546 C.ar    1  UNL1        0.0086
      4 C          59.9323   88.8753    8.1375 C.ar    1  UNL1        0.0574
      5 CL         59.2052   90.0224    7.5007 Cl      1  UNL1       -0.0823
      6 C          60.6201   89.0631    9.4572 C.ar    1  UNL1        0.0126
      7 C          61.3472   87.9159   10.0940 C.ar    1  UNL1        0.0163
      8 C          62.0349   88.1038   11.4138 C.2     1  UNL1        0.0109
      9 C          62.7620   86.9567   12.0506 C.2     1  UNL1        0.0386
     10 C          63.5267   86.8425   13.3359 C.2     1  UNL1        0.0801
     11 C          63.7418   87.9409   14.3345 C.3     1  UNL1        0.0538
     12 N          64.0386   85.4370   13.4474 N.2     1  UNL1       -0.1551
     13 N          63.5903   84.6825   12.2309 N.2     1  UNL1       -0.1469
     14 C          62.8012   85.6217   11.3676 C.3     1  UNL1        0.2503
     15 N          62.1135   85.4339   10.0479 N.2     1  UNL1       -0.2427
     16 C          61.3864   86.5811    9.4111 C.ar    1  UNL1        0.0743
     17 C          61.9956   89.4388   12.0967 C.3     1  UNL1        0.1551
     18 O          60.8510   89.7845   13.0024 O.3     1  UNL1       -0.3756
     19 H          60.2291   89.0408   13.0357 H       1  UNL1        0.2112
     20 C          63.1009   90.4280   11.8739 C.ar    1  UNL1        0.0138
     21 C          63.3139   91.0208   10.5125 C.ar    1  UNL1        0.0192
     22 C          64.4192   92.0100   10.2898 C.ar    1  UNL1        0.1011
     23 N          65.3116   92.4065   11.4284 N.ar    1  UNL1       -0.2165
     24 C          65.0986   91.8138   12.7898 C.ar    1  UNL1        0.2221
     25 F          65.9911   92.2104   13.9284 F       1  UNL1       -0.1832
     26 C          63.9933   90.8246   13.0125 C.ar    1  UNL1        0.0481
@<TRIPOS>BOND
     1     1     2    1
     2     2     3   ar
     3     3     4   ar
     4     4     5    1
     5     4     6   ar
     6     6     7   ar
     7     7     8    2
     8     8    17    1
     9    17    18    1
    10    17    20    1
    11    20    21   ar
    12    21    22   ar
    13    22    23   ar
    14    23    24   ar
    15    24    25    1
    16    24    26   ar
    17     8     9    1
    18     9    10    2
    19    10    11    1
    20    10    12    1
    21    12    13    2
    22    13    14    1
    23    14    15    1
    24    15    16    2
    25    16     2   ar
    26    16     7   ar
    27    26    20   ar
    28    14     9    1
    29    18    19    1
@<TRIPOS>MOLECULE
*****
 26 29 0 0 0
SMALL
GASTEIGER

@<TRIPOS>ATOM
      1 C          62.0244   90.4985    9.6791 C.3     1  UNL1        0.0326
      2 C          61.7713   89.0459    9.9540 C.ar    1  UNL1       -0.0037
      3 C          60.9184   88.2427    9.0173 C.ar    1  UNL1        0.0086
      4 C          60.6652   86.7900    9.2922 C.ar    1  UNL1        0.0574
      5 CL         59.8123   85.9869    8.3554 Cl      1  UNL1       -0.0823
      6 C          61.2649   86.1405   10.5040 C.ar    1  UNL1        0.0126
      7 C          62.1178   86.9436   11.4408 C.ar    1  UNL1        0.0163
      8 C          62.7175   86.2940   12.6526 C.2     1  UNL1        0.0109
      9 C          63.5704   87.0971   13.5894 C.2     1  UNL1        0.0386
     10 C          64.2898   86.7325   14.8541 C.2     1  UNL1        0.0801
     11 C          64.3082   85.3783   15.4989 C.3     1  UNL1        0.0538
     12 N          64.9876   87.9599   15.3607 N.2     1  UNL1       -0.1551
     13 N          64.6994   89.0830   14.4092 N.2     1  UNL1       -0.1469
     14 C          63.8236   88.5498   13.3144 C.3     1  UNL1        0.2503
     15 N          63.2239   89.1994   12.1026 N.2     1  UNL1       -0.2427
     16 C          62.3710   88.3962   11.1658 C.ar    1  UNL1        0.0743
     17 C          62.4643   84.8413   12.9275 C.3     1  UNL1        0.1551
     18 O          61.6666   84.4337   14.1306 O.3     1  UNL1       -0.3756
     19 H          61.3921   85.2250   14.6198 H       1  UNL1        0.2112
     20 C          63.0089   83.7963   11.9994 C.ar    1  UNL1        0.0138
     21 C          63.9686   84.1840   10.9138 C.ar    1  UNL1        0.0192
     22 C          64.5131   83.1389    9.9857 C.ar    1  UNL1        0.1011
     23 N          64.0978   81.7062   10.1433 N.ar    1  UNL1       -0.2165
     24 C          63.1381   81.3185   11.2289 C.ar    1  UNL1        0.2221
     25 F          62.7230   79.8857   11.3864 F       1  UNL1       -0.1832
     26 C          62.5936   82.3635   12.1570 C.ar    1  UNL1        0.0481
@<TRIPOS>BOND
     1     1     2    1
     2     2     3   ar
     3     3     4   ar
     4     4     5    1
     5     4     6   ar
     6     6     7   ar
     7     7     8    2
     8     8    17    1
     9    17    18    1
    10    17    20    1
    11    20    21   ar
    12    21    22   ar
    13    22    23   ar
    14    23    24   ar
    15    24    25    1
    16    24    26   ar
    17     8     9    1
    18     9    10    2
    19    10    11    1
    20    10    12    1
    21    12    13    2
    22    13    14    1
    23    14    15    1
    24    15    16    2
    25    16     2   ar
    26    16     7   ar
    27    26    20   ar
    28    14     9    1
    29    18    19    1
@<TRIPOS>MOLECULE
*****
 26 29 0 0 0
SMALL
GASTEIGER

@<TRIPOS>ATOM
      1 C          57.3068   92.2757   -1.1932 C.3     1  UNL1        0.0326
      2 C          58.3365   93.0789   -1.9309 C.ar    1  UNL1       -0.0037
      3 C          57.9873   93.7269   -3.2378 C.ar    1  UNL1        0.0086
      4 C          59.0170   94.5302   -3.9756 C.ar    1  UNL1        0.0574
      5 CL         58.6678   95.1782   -5.2826 Cl      1  UNL1       -0.0823
      6 C          60.3961   94.6856   -3.4064 C.ar    1  UNL1        0.0126
      7 C          60.7454   94.0376   -2.0993 C.ar    1  UNL1        0.0163
      8 C          62.1245   94.1930   -1.5301 C.2     1  UNL1        0.0109
      9 C          62.4737   93.5451   -0.2231 C.2     1  UNL1        0.0386
     10 C          63.7410   93.5229    0.5791 C.2     1  UNL1        0.0801
     11 C          65.0287   94.1990    0.2122 C.3     1  UNL1        0.0538
     12 N          63.4944   92.7058    1.8126 N.2     1  UNL1       -0.1551
     13 N          62.0747   92.2231    1.7728 N.2     1  UNL1       -0.1469
     14 C          61.4439   92.7418    0.5146 C.3     1  UNL1        0.2503
     15 N          60.0649   92.5864   -0.0547 N.2     1  UNL1       -0.2427
     16 C          59.7156   93.2343   -1.3616 C.ar    1  UNL1        0.0743
     17 C          63.1542   94.9964   -2.2679 C.3     1  UNL1        0.1551
     18 O          63.4427   96.4085   -1.8524 O.3     1  UNL1       -0.3756
     19 H          62.8815   96.6444   -1.0972 H       1  UNL1        0.2112
     20 C          63.8955   94.3876   -3.4211 C.ar    1  UNL1        0.0138
     21 C          63.9311   92.8972   -3.5870 C.ar    1  UNL1        0.0192
     22 C          64.6723   92.2885   -4.7402 C.ar    1  UNL1        0.1011
     23 N          65.3779   93.1702   -5.7276 N.ar    1  UNL1       -0.2165
     24 C          65.3423   94.6605   -5.5616 C.ar    1  UNL1        0.2221
     25 F          66.0480   95.5421   -6.5490 F       1  UNL1       -0.1832
     26 C          64.6011   95.2692   -4.4084 C.ar    1  UNL1        0.0481
@<TRIPOS>BOND
     1     1     2    1
     2     2     3   ar
     3     3     4   ar
     4     4     5    1
     5     4     6   ar
     6     6     7   ar
     7     7     8    2
     8     8    17    1
     9    17    18    1
    10    17    20    1
    11    20    21   ar
    12    21    22   ar
    13    22    23   ar
    14    23    24   ar
    15    24    25    1
    16    24    26   ar
    17     8     9    1
    18     9    10    2
    19    10    11    1
    20    10    12    1
    21    12    13    2
    22    13    14    1
    23    14    15    1
    24    15    16    2
    25    16     2   ar
    26    16     7   ar
    27    26    20   ar
    28    14     9    1
    29    18    19    1
