@<TRIPOS>MOLECULE
*****
 35 39 0 0 0
SMALL
GASTEIGER

@<TRIPOS>ATOM
      1 C          66.4397   93.2285   11.6610 C.ar    1  UNL1        0.0007
      2 C          67.3331   93.0457   12.8520 C.ar    1  UNL1       -0.0027
      3 C          66.9134   92.1414   13.9727 C.ar    1  UNL1       -0.0026
      4 C          67.8068   91.9587   15.1637 C.3     1  UNL1        0.0327
      5 C          65.6002   91.4197   13.9024 C.ar    1  UNL1        0.0996
      6 N          65.1805   90.5154   15.0231 N.ar    1  UNL1       -0.2111
      7 C          63.8674   89.7938   14.9528 C.ar    1  UNL1        0.2398
      8 N          62.9740   89.9766   13.7618 N.ar    1  UNL1       -0.1123
      9 N          63.3937   90.8809   12.6411 N.ar    1  UNL1       -0.1437
     10 C          64.7068   91.6025   12.7114 C.ar    1  UNL1        0.1203
     11 C          65.1266   92.5069   11.5907 C.ar    1  UNL1        0.0224
     12 C          67.9547   92.1159    9.3228 C.3     1  UNL1        0.0310
     13 C          67.6170   93.5766    9.3713 C.ar    1  UNL1       -0.0221
     14 C          68.0367   94.4810    8.2507 C.ar    1  UNL1       -0.0043
     15 C          67.6990   95.9416    8.2991 C.ar    1  UNL1       -0.0006
     16 C          66.9416   96.4979    9.4681 C.ar    1  UNL1       -0.0043
     17 C          66.5218   95.5936   10.5888 C.ar    1  UNL1       -0.0221
     18 C          65.7644   96.1499   11.7579 C.3     1  UNL1        0.0310
     19 C          66.8595   94.1329   10.5403 C.ar    1  UNL1       -0.0079
     20 N          63.4476   88.8894   16.0735 N.pl3   1  UNL1       -0.2813
     21 H          63.1540   89.2725   16.9315 H       1  UNL1        0.1551
     22 C          63.4751   87.4013   15.8868 C.ar    1  UNL1        0.0507
     23 C          62.6585   86.5178   16.7827 C.ar    1  UNL1        0.0178
     24 C          62.6861   85.0297   16.5960 C.ar    1  UNL1        0.0382
     25 C          63.5302   84.4252   15.5133 C.ar    1  UNL1        0.1387
     26 C          64.3467   85.3087   14.6175 C.ar    1  UNL1        0.0382
     27 C          64.3192   86.7968   14.8042 C.ar    1  UNL1        0.0178
     28 O          63.5577   82.9371   15.3266 O.3     1  UNL1       -0.4740
     29 C          62.5039   82.2657   14.4967 C.3     1  UNL1        0.2226
     30 C          62.8611   81.6760   13.1646 C.3     1  UNL1        0.1200
     31 N          63.1315   82.5749   11.9946 N.3     1  UNL1       -0.2696
     32 C          64.0140   82.2572   10.8240 C.3     1  UNL1        0.0722
     33 C          63.9948   83.4353    9.8958 C.3     1  UNL1        0.0188
     34 C          63.1003   84.4811   10.4927 C.3     1  UNL1        0.0188
     35 C          62.5668   83.9494   11.7898 C.3     1  UNL1        0.0722
@<TRIPOS>BOND
     1    12    13    1
     2    13    14   ar
     3    14    15   ar
     4    15    16   ar
     5    16    17   ar
     6    17    18    1
     7    17    19   ar
     8    19     1    1
     9     1     2   ar
    10     2     3   ar
    11     3     4    1
    12     3     5   ar
    13     5     6   ar
    14     6     7   ar
    15     7    20    1
    16    20    22    1
    17    22    23   ar
    18    23    24   ar
    19    24    25   ar
    20    25    28    1
    21    28    29    1
    22    29    30    1
    23    30    31    1
    24    31    32    1
    25    32    33    1
    26    33    34    1
    27    34    35    1
    28    25    26   ar
    29    26    27   ar
    30     7     8   ar
    31     8     9   ar
    32     9    10   ar
    33    10    11   ar
    34    19    13   ar
    35    11     1   ar
    36    10     5   ar
    37    27    22   ar
    38    35    31    1
    39    20    21    1
@<TRIPOS>MOLECULE
*****
 35 39 0 0 0
SMALL
GASTEIGER

@<TRIPOS>ATOM
      1 C          63.1749   83.6364   12.5157 C.ar    1  UNL1        0.0007
      2 C          64.1391   84.0301   13.5952 C.ar    1  UNL1       -0.0027
      3 C          64.3154   85.4761   13.9526 C.ar    1  UNL1       -0.0026
      4 C          65.2797   85.8698   15.0320 C.3     1  UNL1        0.0327
      5 C          63.5275   86.5286   13.2304 C.ar    1  UNL1        0.0996
      6 N          63.7038   87.9747   13.5878 N.ar    1  UNL1       -0.2111
      7 C          62.9158   89.0271   12.8656 C.ar    1  UNL1        0.2398
      8 N          61.9516   88.6335   11.7862 N.ar    1  UNL1       -0.1123
      9 N          61.7753   87.1874   11.4288 N.ar    1  UNL1       -0.1437
     10 C          62.5632   86.1350   12.1509 C.ar    1  UNL1        0.1203
     11 C          62.3869   84.6888   11.7936 C.ar    1  UNL1        0.0224
     12 C          64.1210   82.6224    9.8555 C.3     1  UNL1        0.0310
     13 C          63.4717   81.6833   10.8283 C.ar    1  UNL1       -0.0221
     14 C          63.2954   80.2372   10.4711 C.ar    1  UNL1       -0.0043
     15 C          62.6460   79.2980   11.4439 C.ar    1  UNL1       -0.0006
     16 C          62.1730   79.8050   12.7740 C.ar    1  UNL1       -0.0043
     17 C          62.3493   81.2511   13.1312 C.ar    1  UNL1       -0.0221
     18 C          61.8762   81.7581   14.4614 C.3     1  UNL1        0.0310
     19 C          62.9986   82.1902   12.1584 C.ar    1  UNL1       -0.0079
     20 N          63.0921   90.4733   13.2230 N.pl3   1  UNL1       -0.2813
     21 H          62.4594   90.9089   13.8387 H       1  UNL1        0.1551
     22 C          64.2324   91.2557   12.6421 C.ar    1  UNL1        0.0507
     23 C          65.4375   91.5606   13.4817 C.ar    1  UNL1        0.0178
     24 C          66.5778   92.3430   12.9008 C.ar    1  UNL1        0.0382
     25 C          66.5130   92.8207   11.4803 C.ar    1  UNL1        0.1387
     26 C          65.3080   92.5158   10.6407 C.ar    1  UNL1        0.0382
     27 C          64.1677   91.7333   11.2216 C.ar    1  UNL1        0.0178
     28 O          67.6534   93.6031   10.8994 O.3     1  UNL1       -0.4740
     29 C          67.9859   93.4745    9.4423 C.3     1  UNL1        0.2226
     30 C          67.9899   94.6903    8.5638 C.3     1  UNL1        0.1200
     31 N          66.7599   95.5420    8.4563 N.3     1  UNL1       -0.2696
     32 C          66.1459   96.0476    7.1846 C.3     1  UNL1        0.0722
     33 C          64.9344   96.8558    7.5440 C.3     1  UNL1        0.0188
     34 C          64.7998   96.8497    9.0380 C.3     1  UNL1        0.0188
     35 C          65.9280   96.0378    9.6018 C.3     1  UNL1        0.0722
@<TRIPOS>BOND
     1    12    13    1
     2    13    14   ar
     3    14    15   ar
     4    15    16   ar
     5    16    17   ar
     6    17    18    1
     7    17    19   ar
     8    19     1    1
     9     1     2   ar
    10     2     3   ar
    11     3     4    1
    12     3     5   ar
    13     5     6   ar
    14     6     7   ar
    15     7    20    1
    16    20    22    1
    17    22    23   ar
    18    23    24   ar
    19    24    25   ar
    20    25    28    1
    21    28    29    1
    22    29    30    1
    23    30    31    1
    24    31    32    1
    25    32    33    1
    26    33    34    1
    27    34    35    1
    28    25    26   ar
    29    26    27   ar
    30     7     8   ar
    31     8     9   ar
    32     9    10   ar
    33    10    11   ar
    34    19    13   ar
    35    11     1   ar
    36    10     5   ar
    37    27    22   ar
    38    35    31    1
    39    20    21    1
@<TRIPOS>MOLECULE
*****
 35 39 0 0 0
SMALL
GASTEIGER

@<TRIPOS>ATOM
      1 C          62.8372   83.9836   12.3080 C.ar    1  UNL1        0.0007
      2 C          62.3103   84.7916   11.1593 C.ar    1  UNL1       -0.0027
      3 C          62.4022   86.2884   11.1907 C.ar    1  UNL1       -0.0026
      4 C          61.8754   87.0964   10.0419 C.3     1  UNL1        0.0327
      5 C          63.0210   86.9773   12.3708 C.ar    1  UNL1        0.0996
      6 N          63.1129   88.4741   12.4022 N.ar    1  UNL1       -0.2111
      7 C          63.7316   89.1629   13.5822 C.ar    1  UNL1        0.2398
      8 N          64.2584   88.3550   14.7310 N.ar    1  UNL1       -0.1123
      9 N          64.1665   86.8581   14.6996 N.ar    1  UNL1       -0.1437
     10 C          63.5478   86.1693   13.5195 C.ar    1  UNL1        0.1203
     11 C          63.4559   84.6724   13.4881 C.ar    1  UNL1        0.0224
     12 C          61.6416   82.5051   14.6285 C.3     1  UNL1        0.0310
     13 C          62.1475   81.7475   13.4369 C.ar    1  UNL1       -0.0221
     14 C          62.0556   80.2506   13.4054 C.ar    1  UNL1       -0.0043
     15 C          62.5615   79.4930   12.2138 C.ar    1  UNL1       -0.0006
     16 C          63.1593   80.2322   11.0535 C.ar    1  UNL1       -0.0043
     17 C          63.2512   81.7291   11.0850 C.ar    1  UNL1       -0.0221
     18 C          63.8490   82.4683    9.9247 C.3     1  UNL1        0.0310
     19 C          62.7453   82.4867   12.2766 C.ar    1  UNL1       -0.0079
     20 N          63.8235   90.6599   13.6136 N.pl3   1  UNL1       -0.2813
     21 H          63.1555   91.1837   14.1123 H       1  UNL1        0.1551
     22 C          64.9332   91.3585   12.8853 C.ar    1  UNL1        0.0507
     23 C          66.2010   91.7076   13.6072 C.ar    1  UNL1        0.0178
     24 C          67.3106   92.4063   12.8789 C.ar    1  UNL1        0.0382
     25 C          67.1525   92.7559   11.4287 C.ar    1  UNL1        0.1387
     26 C          65.8848   92.4069   10.7070 C.ar    1  UNL1        0.0382
     27 C          64.7751   91.7082   11.4353 C.ar    1  UNL1        0.0178
     28 O          68.2622   93.4546   10.7004 O.3     1  UNL1       -0.4740
     29 C          68.0169   94.0359    9.3395 C.3     1  UNL1        0.2226
     30 C          67.8097   95.5130    9.1811 C.3     1  UNL1        0.1200
     31 N          66.4715   96.0415    8.7571 N.3     1  UNL1       -0.2696
     32 C          65.3181   96.3516    9.6646 C.3     1  UNL1        0.0722
     33 C          64.1854   96.8544    8.8196 C.3     1  UNL1        0.0188
     34 C          64.6388   96.8550    7.3897 C.3     1  UNL1        0.0188
     35 C          66.0516   96.3526    7.3511 C.3     1  UNL1        0.0722
@<TRIPOS>BOND
     1    12    13    1
     2    13    14   ar
     3    14    15   ar
     4    15    16   ar
     5    16    17   ar
     6    17    18    1
     7    17    19   ar
     8    19     1    1
     9     1     2   ar
    10     2     3   ar
    11     3     4    1
    12     3     5   ar
    13     5     6   ar
    14     6     7   ar
    15     7    20    1
    16    20    22    1
    17    22    23   ar
    18    23    24   ar
    19    24    25   ar
    20    25    28    1
    21    28    29    1
    22    29    30    1
    23    30    31    1
    24    31    32    1
    25    32    33    1
    26    33    34    1
    27    34    35    1
    28    25    26   ar
    29    26    27   ar
    30     7     8   ar
    31     8     9   ar
    32     9    10   ar
    33    10    11   ar
    34    19    13   ar
    35    11     1   ar
    36    10     5   ar
    37    27    22   ar
    38    35    31    1
    39    20    21    1
