@<TRIPOS>MOLECULE
*****
 39 44 0 0 0
SMALL
GASTEIGER

@<TRIPOS>ATOM
      1 C          62.8394   80.8776   12.6469 C.ar    1  UNL1        0.2928
      2 C          62.8127   80.1272   11.3484 C.ar    1  UNL1        0.0754
      3 C          62.9180   80.8710   10.0500 C.ar    1  UNL1        0.0078
      4 C          63.0501   82.3651   10.0502 C.ar    1  UNL1        0.0177
      5 C          63.0769   83.1155   11.3487 C.ar    1  UNL1        0.0677
      6 C          62.9715   82.3717   12.6471 C.ar    1  UNL1        0.1042
      7 C          63.0262   83.3744   13.7614 C.ar    1  UNL1        0.1088
      8 N          62.9673   83.2220   15.2524 N.ar    1  UNL1       -0.2222
      9 C          63.0474   84.4331   16.1339 C.ar    1  UNL1        0.2001
     10 N          63.1866   85.7965   15.5242 N.ar    1  UNL1       -0.2075
     11 C          63.2455   85.9489   14.0332 C.ar    1  UNL1        0.1509
     12 C          63.1653   84.7378   13.1517 C.ar    1  UNL1        0.1103
     13 N          63.1966   84.5778   11.6606 N.ar    1  UNL1       -0.3194
     14 N          63.3846   87.3123   13.4236 N.pl3   1  UNL1       -0.2892
     15 C          62.6485   87.6478   12.1605 C.3     1  UNL1        0.1095
     16 C          62.7877   89.0113   11.5509 C.3     1  UNL1        0.0939
     17 N          63.6629   90.0393   12.2044 N.3     1  UNL1       -0.2695
     18 C          64.3990   89.7038   13.4676 C.3     1  UNL1        0.0939
     19 C          64.2599   88.3404   14.0771 C.3     1  UNL1        0.1095
     20 C          63.8020   91.4027   11.5948 C.3     1  UNL1        0.0769
     21 C          64.8668   92.3385   12.0852 C.3     1  UNL1        0.0437
     22 C          65.7119   93.0940   11.1029 C.ar    1  UNL1       -0.0184
     23 C          65.4398   94.5454   10.8398 C.ar    1  UNL1       -0.0018
     24 C          66.2850   95.3009    9.8574 C.ar    1  UNL1        0.0316
     25 C          67.4023   94.6049    9.1381 C.ar    1  UNL1        0.1674
     26 F          68.2474   95.3603    8.1558 F       1  UNL1       -0.2018
     27 C          67.6744   93.1534    9.4013 C.ar    1  UNL1        0.1671
     28 F          68.7916   92.4574    8.6820 F       1  UNL1       -0.2018
     29 C          66.8293   92.3980   10.3836 C.ar    1  UNL1        0.0277
     30 O          63.9476   79.9573   14.8091 O.2     1  UNL1        0.0415
     31 N          62.7341   80.1338   13.9452 N.pl3   1  UNL1        0.0810
     32 O          61.4153   79.5665   14.3797 O.co2   1  UNL1       -0.5760
     33 C          63.3251   85.6856   10.6575 C.3     1  UNL1        0.1329
     34 C          62.4768   85.6796    9.4206 C.ar    1  UNL1        0.0035
     35 C          63.0174   85.1090    8.1430 C.ar    1  UNL1        0.0183
     36 C          62.1689   85.1030    6.9061 C.ar    1  UNL1        0.0986
     37 N          60.7798   85.6675    6.9466 N.ar    1  UNL1       -0.2423
     38 C          60.2391   86.2381    8.2242 C.ar    1  UNL1        0.0986
     39 C          61.0876   86.2441    9.4611 C.ar    1  UNL1        0.0183
@<TRIPOS>UNITY_ATOM_ATTR
31 1
charge 1
32 1
charge -1
@<TRIPOS>BOND
     1    30    31    2
     2    31    32    1
     3    31     1    1
     4     1     2   ar
     5     2     3   ar
     6     3     4   ar
     7     4     5   ar
     8     5     6   ar
     9     6     7   ar
    10     7     8   ar
    11     8     9   ar
    12     9    10   ar
    13    10    11   ar
    14    11    14    1
    15    14    15    1
    16    15    16    1
    17    16    17    1
    18    17    20    1
    19    20    21    1
    20    21    22    1
    21    22    23   ar
    22    23    24   ar
    23    24    25   ar
    24    25    26    1
    25    25    27   ar
    26    27    28    1
    27    27    29   ar
    28    17    18    1
    29    18    19    1
    30    11    12   ar
    31    12    13   ar
    32    13    33    1
    33    33    34    1
    34    34    35   ar
    35    35    36   ar
    36    36    37   ar
    37    37    38   ar
    38    38    39   ar
    39     6     1   ar
    40    12     7   ar
    41    39    34   ar
    42    13     5   ar
    43    19    14    1
    44    29    22   ar
@<TRIPOS>MOLECULE
*****
 39 44 0 0 0
SMALL
GASTEIGER

@<TRIPOS>ATOM
      1 C          62.5028   82.4503   12.9226 C.ar    1  UNL1        0.2928
      2 C          62.4832   82.0969   11.4650 C.ar    1  UNL1        0.0754
      3 C          62.7890   83.1438   10.4352 C.ar    1  UNL1        0.0078
      4 C          63.1143   84.5442   10.8631 C.ar    1  UNL1        0.0177
      5 C          63.1338   84.8976   12.3207 C.ar    1  UNL1        0.0677
      6 C          62.8281   83.8506   13.3505 C.ar    1  UNL1        0.1042
      7 C          62.9229   84.4901   14.7040 C.ar    1  UNL1        0.1088
      8 N          62.7246   83.9455   16.0875 N.ar    1  UNL1       -0.2222
      9 C          62.8906   84.8431   17.2778 C.ar    1  UNL1        0.2001
     10 N          63.2550   86.2853   17.0846 N.ar    1  UNL1       -0.2075
     11 C          63.4533   86.8299   15.7011 C.ar    1  UNL1        0.1509
     12 C          63.2873   85.9323   14.5108 C.ar    1  UNL1        0.1103
     13 N          63.4176   86.1841   13.0379 N.ar    1  UNL1       -0.3194
     14 N          63.8177   88.2721   15.5079 N.pl3   1  UNL1       -0.2892
     15 C          63.0573   89.3416   16.2343 C.3     1  UNL1        0.1095
     16 C          63.4217   90.7838   16.0411 C.3     1  UNL1        0.0939
     17 N          64.5466   91.1564   15.1215 N.3     1  UNL1       -0.2695
     18 C          65.3071   90.0869   14.3950 C.3     1  UNL1        0.0939
     19 C          64.9427   88.6448   14.5883 C.3     1  UNL1        0.1095
     20 C          64.9110   92.5986   14.9283 C.3     1  UNL1        0.0769
     21 C          66.2785   92.9670   14.4339 C.3     1  UNL1        0.0437
     22 C          66.4974   93.2547   12.9781 C.ar    1  UNL1       -0.0184
     23 C          66.1069   94.5868   12.4099 C.ar    1  UNL1       -0.0018
     24 C          66.3259   94.8744   10.9541 C.ar    1  UNL1        0.0316
     25 C          66.9352   93.8300   10.0666 C.ar    1  UNL1        0.1674
     26 F          67.1542   94.1177    8.6108 F       1  UNL1       -0.2018
     27 C          67.3257   92.4978   10.6348 C.ar    1  UNL1        0.1671
     28 F          67.9351   91.4533    9.7473 F       1  UNL1       -0.2018
     29 C          67.1068   92.2102   12.0905 C.ar    1  UNL1        0.0277
     30 O          60.7813   81.1750   14.3924 O.2     1  UNL1        0.0415
     31 N          62.1970   81.4033   13.9523 N.pl3   1  UNL1        0.0810
     32 O          63.3069   80.5846   14.5421 O.co2   1  UNL1       -0.5760
     33 C          63.7700   87.4927   12.3949 C.3     1  UNL1        0.1329
     34 C          62.7194   88.2776   11.6668 C.ar    1  UNL1        0.0035
     35 C          62.3572   89.6571   12.1313 C.ar    1  UNL1        0.0183
     36 C          61.3066   90.4420   11.4031 C.ar    1  UNL1        0.0986
     37 N          60.6181   89.8473   10.2105 N.ar    1  UNL1       -0.2423
     38 C          60.9802   88.4678    9.7460 C.ar    1  UNL1        0.0986
     39 C          62.0308   87.6829   10.4742 C.ar    1  UNL1        0.0183
@<TRIPOS>UNITY_ATOM_ATTR
31 1
charge 1
32 1
charge -1
@<TRIPOS>BOND
     1    30    31    2
     2    31    32    1
     3    31     1    1
     4     1     2   ar
     5     2     3   ar
     6     3     4   ar
     7     4     5   ar
     8     5     6   ar
     9     6     7   ar
    10     7     8   ar
    11     8     9   ar
    12     9    10   ar
    13    10    11   ar
    14    11    14    1
    15    14    15    1
    16    15    16    1
    17    16    17    1
    18    17    20    1
    19    20    21    1
    20    21    22    1
    21    22    23   ar
    22    23    24   ar
    23    24    25   ar
    24    25    26    1
    25    25    27   ar
    26    27    28    1
    27    27    29   ar
    28    17    18    1
    29    18    19    1
    30    11    12   ar
    31    12    13   ar
    32    13    33    1
    33    33    34    1
    34    34    35   ar
    35    35    36   ar
    36    36    37   ar
    37    37    38   ar
    38    38    39   ar
    39     6     1   ar
    40    12     7   ar
    41    39    34   ar
    42    13     5   ar
    43    19    14    1
    44    29    22   ar
@<TRIPOS>MOLECULE
*****
 39 44 0 0 0
SMALL
GASTEIGER

@<TRIPOS>ATOM
      1 C          63.3217   82.9901   10.6648 C.ar    1  UNL1        0.2928
      2 C          63.0193   83.2291    9.2152 C.ar    1  UNL1        0.0754
      3 C          62.7944   84.6257    8.7162 C.ar    1  UNL1        0.0078
      4 C          62.8719   85.7833    9.6669 C.ar    1  UNL1        0.0177
      5 C          63.1744   85.5444   11.1165 C.ar    1  UNL1        0.0677
      6 C          63.3993   84.1478   11.6154 C.ar    1  UNL1        0.1042
      7 C          63.6774   84.2207   13.0876 C.ar    1  UNL1        0.1088
      8 N          63.9721   83.1606   14.1071 N.ar    1  UNL1       -0.2222
      9 C          64.2138   83.5421   15.5375 C.ar    1  UNL1        0.2001
     10 N          64.1608   84.9837   15.9485 N.ar    1  UNL1       -0.2075
     11 C          63.8661   86.0438   14.9290 C.ar    1  UNL1        0.1509
     12 C          63.6244   85.6623   13.4986 C.ar    1  UNL1        0.1103
     13 N          63.3135   86.4804   12.2804 N.ar    1  UNL1       -0.3194
     14 N          63.8131   87.4854   15.3400 N.pl3   1  UNL1       -0.2892
     15 C          63.1291   87.8768   16.6162 C.3     1  UNL1        0.1095
     16 C          63.0762   89.3186   17.0271 C.3     1  UNL1        0.0939
     17 N          63.7072   90.3688   16.1618 N.3     1  UNL1       -0.2695
     18 C          64.3912   89.9773   14.8854 C.3     1  UNL1        0.0939
     19 C          64.4442   88.5357   14.4746 C.3     1  UNL1        0.1095
     20 C          63.6542   91.8104   16.5727 C.3     1  UNL1        0.0769
     21 C          64.9207   92.6071   16.6787 C.3     1  UNL1        0.0437
     22 C          66.0249   92.3960   15.6856 C.ar    1  UNL1       -0.0184
     23 C          67.4346   92.2046   16.1610 C.ar    1  UNL1       -0.0018
     24 C          68.5388   91.9935   15.1678 C.ar    1  UNL1        0.0316
     25 C          68.2333   91.9737   13.6994 C.ar    1  UNL1        0.1674
     26 F          69.3375   91.7626   12.7064 F       1  UNL1       -0.2018
     27 C          66.8235   92.1651   13.2241 C.ar    1  UNL1        0.1671
     28 F          66.5180   92.1454   11.7557 F       1  UNL1       -0.2018
     29 C          65.7194   92.3763   14.2171 C.ar    1  UNL1        0.0277
     30 O          64.5270   81.3413   12.2706 O.2     1  UNL1        0.0415
     31 N          63.5466   81.5935   11.1637 N.pl3   1  UNL1        0.0810
     32 O          62.7912   80.4492   10.5558 O.co2   1  UNL1       -0.5760
     33 C          63.1674   87.9725   12.2341 C.3     1  UNL1        0.1329
     34 C          62.1253   88.5972   11.3545 C.ar    1  UNL1        0.0035
     35 C          62.4507   89.8313   10.5664 C.ar    1  UNL1        0.0183
     36 C          61.4085   90.4560    9.6868 C.ar    1  UNL1        0.0986
     37 N          60.0410   89.8465    9.5953 N.ar    1  UNL1       -0.2423
     38 C          59.7156   88.6124   10.3833 C.ar    1  UNL1        0.0986
     39 C          60.7577   87.9877   11.2629 C.ar    1  UNL1        0.0183
@<TRIPOS>UNITY_ATOM_ATTR
31 1
charge 1
32 1
charge -1
@<TRIPOS>BOND
     1    30    31    2
     2    31    32    1
     3    31     1    1
     4     1     2   ar
     5     2     3   ar
     6     3     4   ar
     7     4     5   ar
     8     5     6   ar
     9     6     7   ar
    10     7     8   ar
    11     8     9   ar
    12     9    10   ar
    13    10    11   ar
    14    11    14    1
    15    14    15    1
    16    15    16    1
    17    16    17    1
    18    17    20    1
    19    20    21    1
    20    21    22    1
    21    22    23   ar
    22    23    24   ar
    23    24    25   ar
    24    25    26    1
    25    25    27   ar
    26    27    28    1
    27    27    29   ar
    28    17    18    1
    29    18    19    1
    30    11    12   ar
    31    12    13   ar
    32    13    33    1
    33    33    34    1
    34    34    35   ar
    35    35    36   ar
    36    36    37   ar
    37    37    38   ar
    38    38    39   ar
    39     6     1   ar
    40    12     7   ar
    41    39    34   ar
    42    13     5   ar
    43    19    14    1
    44    29    22   ar
@<TRIPOS>MOLECULE
*****
 39 44 0 0 0
SMALL
GASTEIGER

@<TRIPOS>ATOM
      1 C          62.6909   81.6105   12.7472 C.ar    1  UNL1        0.2928
      2 C          62.6939   80.9847   11.3840 C.ar    1  UNL1        0.0754
      3 C          62.8827   81.8401   10.1664 C.ar    1  UNL1        0.0078
      4 C          63.0685   83.3214   10.3120 C.ar    1  UNL1        0.0177
      5 C          63.0656   83.9472   11.6752 C.ar    1  UNL1        0.0677
      6 C          62.8767   83.0918   12.8928 C.ar    1  UNL1        0.1042
      7 C          62.9188   83.9845   14.0975 C.ar    1  UNL1        0.1088
      8 N          62.7892   83.6978   15.5641 N.ar    1  UNL1       -0.2222
      9 C          62.8745   84.8183   16.5577 C.ar    1  UNL1        0.2001
     10 N          63.0893   86.2255   16.0847 N.ar    1  UNL1       -0.2075
     11 C          63.2189   86.5121   14.6181 C.ar    1  UNL1        0.1509
     12 C          63.1336   85.3916   13.6245 C.ar    1  UNL1        0.1103
     13 N          63.2243   85.3686   12.1274 N.ar    1  UNL1       -0.3194
     14 N          63.4337   87.9193   14.1451 N.pl3   1  UNL1       -0.2892
     15 C          64.7081   88.6364   14.4789 C.3     1  UNL1        0.1095
     16 C          64.9229   90.0436   14.0058 C.3     1  UNL1        0.0939
     17 N          63.8632   90.7336   13.1990 N.3     1  UNL1       -0.2695
     18 C          62.5887   90.0165   12.8653 C.3     1  UNL1        0.0939
     19 C          62.3740   88.6094   13.3383 C.3     1  UNL1        0.1095
     20 C          64.0781   92.1408   12.7260 C.3     1  UNL1        0.0769
     21 C          65.4643   92.6264   12.4218 C.3     1  UNL1        0.0437
     22 C          66.5132   92.6209   13.4941 C.ar    1  UNL1       -0.0184
     23 C          66.1526   93.0069   14.8979 C.ar    1  UNL1       -0.0018
     24 C          67.2015   93.0014   15.9702 C.ar    1  UNL1        0.0316
     25 C          68.6110   92.6098   15.6386 C.ar    1  UNL1        0.1674
     26 F          69.6599   92.6043   16.7109 F       1  UNL1       -0.2018
     27 C          68.9716   92.2238   14.2346 C.ar    1  UNL1        0.1671
     28 F          70.3811   91.8322   13.9030 F       1  UNL1       -0.2018
     29 C          67.9227   92.2293   13.1625 C.ar    1  UNL1        0.0277
     30 O          63.6681   80.0144   14.5492 O.2     1  UNL1        0.0415
     31 N          62.5020   80.7550   13.9648 N.pl3   1  UNL1        0.0810
     32 O          61.1471   80.6403   14.5980 O.co2   1  UNL1       -0.5760
     33 C          63.4365   86.5581   11.2386 C.3     1  UNL1        0.1329
     34 C          62.2977   87.1008   10.4272 C.ar    1  UNL1        0.0035
     35 C          62.2933   88.5418   10.0106 C.ar    1  UNL1        0.0183
     36 C          61.1544   89.0845    9.1993 C.ar    1  UNL1        0.0986
     37 N          60.0199   88.1863    8.8044 N.ar    1  UNL1       -0.2423
     38 C          60.0242   86.7453    9.2210 C.ar    1  UNL1        0.0986
     39 C          61.1631   86.2026   10.0324 C.ar    1  UNL1        0.0183
@<TRIPOS>UNITY_ATOM_ATTR
31 1
charge 1
32 1
charge -1
@<TRIPOS>BOND
     1    30    31    2
     2    31    32    1
     3    31     1    1
     4     1     2   ar
     5     2     3   ar
     6     3     4   ar
     7     4     5   ar
     8     5     6   ar
     9     6     7   ar
    10     7     8   ar
    11     8     9   ar
    12     9    10   ar
    13    10    11   ar
    14    11    14    1
    15    14    15    1
    16    15    16    1
    17    16    17    1
    18    17    20    1
    19    20    21    1
    20    21    22    1
    21    22    23   ar
    22    23    24   ar
    23    24    25   ar
    24    25    26    1
    25    25    27   ar
    26    27    28    1
    27    27    29   ar
    28    17    18    1
    29    18    19    1
    30    11    12   ar
    31    12    13   ar
    32    13    33    1
    33    33    34    1
    34    34    35   ar
    35    35    36   ar
    36    36    37   ar
    37    37    38   ar
    38    38    39   ar
    39     6     1   ar
    40    12     7   ar
    41    39    34   ar
    42    13     5   ar
    43    19    14    1
    44    29    22   ar
