@<TRIPOS>MOLECULE
*****
 31 34 0 0 0
SMALL
GASTEIGER

@<TRIPOS>ATOM
      1 C          65.4936   91.8146   12.7704 C.3     1  UNL1        0.0795
      2 C          65.7864   92.7631   11.6458 C.3     1  UNL1        0.0178
      3 C          64.8975   92.7916   10.4380 C.3     1  UNL1        0.0029
      4 C          63.7158   91.8715   10.3546 C.3     1  UNL1        0.0178
      5 C          63.4230   90.9230   11.4791 C.3     1  UNL1        0.0799
      6 N          64.3119   90.8946   12.6870 N.3     1  UNL1       -0.1583
      7 C          62.2412   90.0029   11.3958 C.3     1  UNL1        0.0237
      8 C          60.8893   89.4160   11.6748 C.3     1  UNL1        0.0019
      9 C          61.3407   90.6429   12.4105 C.3     1  UNL1        0.0019
     10 C          62.7313   89.0434   10.3522 C.3     1  UNL1        0.0866
     11 C          61.9879   87.7652   10.1002 C.2     1  UNL1        0.2257
     12 O          62.3610   86.5204   10.8494 O.2     1  UNL1       -0.2749
     13 N          60.8713   87.7318    9.0992 N.am    1  UNL1       -0.2770
     14 C          60.0420   86.5336    8.7431 C.3     1  UNL1        0.0960
     15 C          59.0462   86.9520    7.7023 C.3     1  UNL1        0.0525
     16 C          59.2599   88.4086    7.4152 C.3     1  UNL1        0.1320
     17 O          58.4823   89.2378    6.4365 O.3     1  UNL1       -0.3827
     18 C          60.3879   88.8906    8.2785 C.3     1  UNL1        0.1225
     19 H          58.8202   90.1470    6.4427 H       1  UNL1        0.2104
     20 S          64.0191   89.9460   13.8115 S.O2    1  UNL1        0.0632
     21 O          63.5275   91.0898   14.6483 O.2     1  UNL1       -0.1528
     22 O          64.3846   88.7407   13.3257 O.2     1  UNL1       -0.1528
     23 C          63.7262   88.9975   14.9361 C.ar    1  UNL1        0.1222
     24 C          64.0401   87.5382   14.7874 C.ar    1  UNL1        0.0208
     25 C          63.7472   86.5898   15.9119 C.ar    1  UNL1        0.0128
     26 C          63.1406   87.1005   17.1851 C.ar    1  UNL1        0.0578
     27 CL         62.8477   86.1520   18.3097 Cl      1  UNL1       -0.0822
     28 C          62.8267   88.5597   17.3338 C.ar    1  UNL1        0.0128
     29 C          63.1196   89.5083   16.2093 C.ar    1  UNL1        0.0208
     30 C          67.8679   91.9225   13.8197 C.3     1  UNL1        0.0015
     31 C          66.3826   91.7862   13.9782 C.3     1  UNL1        0.0177
@<TRIPOS>BOND
     1    30    31    1
     2     1    31    1
     3     1     2    1
     4     2     3    1
     5     3     4    1
     6     4     5    1
     7     5     7    1
     8     7    10    1
     9    10    11    1
    10    11    12    2
    11    11    13   am
    12    13    14    1
    13    14    15    1
    14    15    16    1
    15    16    17    1
    16    16    18    1
    17     7     8    1
    18     8     9    1
    19     5     6    1
    20     6    20    1
    21    20    21    2
    22    20    22    2
    23    20    23    1
    24    23    24   ar
    25    24    25   ar
    26    25    26   ar
    27    26    27    1
    28    26    28   ar
    29    28    29   ar
    30     6     1    1
    31    29    23   ar
    32     9     7    1
    33    18    13    1
    34    17    19    1
@<TRIPOS>MOLECULE
*****
 31 34 0 0 0
SMALL
GASTEIGER

@<TRIPOS>ATOM
      1 C          60.5775   86.6890    8.1506 C.3     1  UNL1        0.0795
      2 C          59.8341   87.4838    7.1185 C.3     1  UNL1        0.0178
      3 C          59.4652   88.9115    7.3936 C.3     1  UNL1        0.0029
      4 C          59.8398   89.5443    8.7010 C.3     1  UNL1        0.0178
      5 C          60.5832   88.7494    9.7332 C.3     1  UNL1        0.0799
      6 N          60.9521   87.3218    9.4580 N.3     1  UNL1       -0.1583
      7 C          60.9578   89.3822   11.0406 C.3     1  UNL1        0.0237
      8 C          60.8217   89.9462   12.4239 C.3     1  UNL1        0.0019
      9 C          59.6172   89.4038   11.7132 C.3     1  UNL1        0.0019
     10 C          62.4285   89.5804   10.8220 C.3     1  UNL1        0.0866
     11 C          63.2965   90.0577   11.9485 C.2     1  UNL1        0.2257
     12 O          63.2731   89.3440   13.2676 O.2     1  UNL1       -0.2749
     13 N          64.1878   91.2486   11.7558 N.am    1  UNL1       -0.2770
     14 C          65.1063   91.8382   12.7848 C.3     1  UNL1        0.0960
     15 C          65.8033   93.0131   12.1652 C.3     1  UNL1        0.0525
     16 C          65.3157   93.1496   10.7533 C.3     1  UNL1        0.1320
     17 O          65.7502   94.1933    9.7675 O.3     1  UNL1       -0.3827
     18 C          64.3173   92.0591   10.5002 C.3     1  UNL1        0.1225
     19 H          65.2839   94.0588    8.9276 H       1  UNL1        0.2104
     20 S          61.6956   86.5269   10.4903 S.O2    1  UNL1        0.0632
     21 O          62.8971   86.4860    9.5933 O.2     1  UNL1       -0.1528
     22 O          60.8082   86.3896   11.4983 O.2     1  UNL1       -0.1528
     23 C          62.4391   85.7321   11.5224 C.ar    1  UNL1        0.1222
     24 C          62.5467   84.2420   11.3874 C.ar    1  UNL1        0.0208
     25 C          63.2902   83.4472   12.4196 C.ar    1  UNL1        0.0128
     26 C          63.9261   84.1423   13.5868 C.ar    1  UNL1        0.0578
     27 CL         64.6695   83.3475   14.6190 Cl      1  UNL1       -0.0822
     28 C          63.8184   85.6323   13.7219 C.ar    1  UNL1        0.0128
     29 C          63.0749   86.4273   12.6897 C.ar    1  UNL1        0.0208
     30 C          61.7281   84.9127    6.6437 C.3     1  UNL1        0.0015
     31 C          60.9464   85.2613    7.8755 C.3     1  UNL1        0.0177
@<TRIPOS>BOND
     1    30    31    1
     2     1    31    1
     3     1     2    1
     4     2     3    1
     5     3     4    1
     6     4     5    1
     7     5     7    1
     8     7    10    1
     9    10    11    1
    10    11    12    2
    11    11    13   am
    12    13    14    1
    13    14    15    1
    14    15    16    1
    15    16    17    1
    16    16    18    1
    17     7     8    1
    18     8     9    1
    19     5     6    1
    20     6    20    1
    21    20    21    2
    22    20    22    2
    23    20    23    1
    24    23    24   ar
    25    24    25   ar
    26    25    26   ar
    27    26    27    1
    28    26    28   ar
    29    28    29   ar
    30     6     1    1
    31    29    23   ar
    32     9     7    1
    33    18    13    1
    34    17    19    1
@<TRIPOS>MOLECULE
*****
 31 34 0 0 0
SMALL
GASTEIGER

@<TRIPOS>ATOM
      1 C          63.1040   85.7782   12.5248 C.3     1  UNL1        0.0795
      2 C          63.9408   85.4124   13.7147 C.3     1  UNL1        0.0178
      3 C          64.5001   86.4883   14.5976 C.3     1  UNL1        0.0029
      4 C          64.2227   87.9301   14.2905 C.3     1  UNL1        0.0178
      5 C          63.3860   88.2959   13.1006 C.3     1  UNL1        0.0799
      6 N          62.8267   87.2199   12.2177 N.3     1  UNL1       -0.1583
      7 C          63.1086   89.7377   12.7935 C.3     1  UNL1        0.0237
      8 C          62.3477   91.0137   12.5867 C.3     1  UNL1        0.0019
      9 C          61.6199   89.7611   12.9758 C.3     1  UNL1        0.0019
     10 C          64.5010   90.2149   12.5045 C.3     1  UNL1        0.0866
     11 C          65.0127   91.4692   13.1486 C.2     1  UNL1        0.2257
     12 O          65.0118   91.5991   14.6430 O.2     1  UNL1       -0.2749
     13 N          65.5252   92.5937   12.2984 N.am    1  UNL1       -0.2770
     14 C          66.0651   93.9012   12.7976 C.3     1  UNL1        0.0960
     15 C          66.4615   94.7236   11.6074 C.3     1  UNL1        0.0525
     16 C          66.1666   93.9245   10.3728 C.3     1  UNL1        0.1320
     17 O          66.4079   94.3645    8.9592 O.3     1  UNL1       -0.3827
     18 C          65.5880   92.6081   10.7998 C.3     1  UNL1        0.1225
     19 H          66.1308   93.6622    8.3502 H       1  UNL1        0.2104
     20 S          61.9899   87.5858   11.0277 S.O2    1  UNL1        0.0632
     21 O          60.7610   87.1142   11.7469 O.2     1  UNL1       -0.1528
     22 O          62.8809   88.0773   10.1406 O.2     1  UNL1       -0.1528
     23 C          61.1531   87.9516    9.8378 C.ar    1  UNL1        0.1222
     24 C          60.5208   86.8753    9.0061 C.ar    1  UNL1        0.0208
     25 C          59.6841   87.2411    7.8161 C.ar    1  UNL1        0.0128
     26 C          59.4796   88.6833    7.4579 C.ar    1  UNL1        0.0578
     27 CL         58.6428   89.0491    6.2680 Cl      1  UNL1       -0.0822
     28 C          60.1118   89.7596    8.2896 C.ar    1  UNL1        0.0128
     29 C          60.9486   89.3938    9.4796 C.ar    1  UNL1        0.0208
     30 C          63.4698   83.7662   10.9223 C.3     1  UNL1        0.0015
     31 C          62.5447   84.7022   11.6419 C.3     1  UNL1        0.0177
@<TRIPOS>BOND
     1    30    31    1
     2     1    31    1
     3     1     2    1
     4     2     3    1
     5     3     4    1
     6     4     5    1
     7     5     7    1
     8     7    10    1
     9    10    11    1
    10    11    12    2
    11    11    13   am
    12    13    14    1
    13    14    15    1
    14    15    16    1
    15    16    17    1
    16    16    18    1
    17     7     8    1
    18     8     9    1
    19     5     6    1
    20     6    20    1
    21    20    21    2
    22    20    22    2
    23    20    23    1
    24    23    24   ar
    25    24    25   ar
    26    25    26   ar
    27    26    27    1
    28    26    28   ar
    29    28    29   ar
    30     6     1    1
    31    29    23   ar
    32     9     7    1
    33    18    13    1
    34    17    19    1
@<TRIPOS>MOLECULE
*****
 31 34 0 0 0
SMALL
GASTEIGER

@<TRIPOS>ATOM
      1 C          65.2592   91.7478   12.7690 C.3     1  UNL1        0.0795
      2 C          65.5141   92.6260   11.5800 C.3     1  UNL1        0.0178
      3 C          64.6373   92.5201   10.3676 C.3     1  UNL1        0.0029
      4 C          63.5055   91.5360   10.3441 C.3     1  UNL1        0.0178
      5 C          63.2506   90.6578   11.5331 C.3     1  UNL1        0.0799
      6 N          64.1274   90.7637   12.7455 N.3     1  UNL1       -0.1583
      7 C          62.1188   89.6736   11.5097 C.3     1  UNL1        0.0237
      8 C          60.7194   89.1356   11.4630 C.3     1  UNL1        0.0019
      9 C          60.9549   90.6168   11.4345 C.3     1  UNL1        0.0019
     10 C          62.8897   88.3886   11.5768 C.3     1  UNL1        0.0866
     11 C          62.4520   87.2080   10.7615 C.2     1  UNL1        0.2257
     12 O          61.8538   87.4158    9.4018 O.2     1  UNL1       -0.2749
     13 N          62.6125   85.8196   11.3060 N.am    1  UNL1       -0.2770
     14 C          62.2230   84.5491   10.6102 C.3     1  UNL1        0.0960
     15 C          62.5605   83.4022   11.5161 C.3     1  UNL1        0.0525
     16 C          63.1585   83.9638   12.7718 C.3     1  UNL1        0.1320
     17 O          63.6399   83.1706   13.9505 O.3     1  UNL1       -0.3827
     18 C          63.1907   85.4578   12.6420 C.3     1  UNL1        0.1225
     19 H          63.9812   83.7742   14.6288 H       1  UNL1        0.2104
     20 S          63.8724   89.8854   13.9345 S.O2    1  UNL1        0.0632
     21 O          62.9566   90.9263   14.5070 O.2     1  UNL1       -0.1528
     22 O          64.6167   88.7852   13.6935 O.2     1  UNL1       -0.1528
     23 C          63.6174   89.0072   15.1235 C.ar    1  UNL1        0.1222
     24 C          63.1255   89.6071   16.4073 C.ar    1  UNL1        0.0208
     25 C          62.8705   88.7289   17.5963 C.ar    1  UNL1        0.0128
     26 C          63.1074   87.2507   17.5015 C.ar    1  UNL1        0.0578
     27 CL         62.8524   86.3725   18.6905 Cl      1  UNL1       -0.0822
     28 C          63.5994   86.6508   16.2178 C.ar    1  UNL1        0.0128
     29 C          63.8544   87.5290   15.0287 C.ar    1  UNL1        0.0208
     30 C          67.6248   91.9475   13.8244 C.3     1  UNL1        0.0015
     31 C          66.1360   91.8537   13.9814 C.3     1  UNL1        0.0177
@<TRIPOS>BOND
     1    30    31    1
     2     1    31    1
     3     1     2    1
     4     2     3    1
     5     3     4    1
     6     4     5    1
     7     5     7    1
     8     7    10    1
     9    10    11    1
    10    11    12    2
    11    11    13   am
    12    13    14    1
    13    14    15    1
    14    15    16    1
    15    16    17    1
    16    16    18    1
    17     7     8    1
    18     8     9    1
    19     5     6    1
    20     6    20    1
    21    20    21    2
    22    20    22    2
    23    20    23    1
    24    23    24   ar
    25    24    25   ar
    26    25    26   ar
    27    26    27    1
    28    26    28   ar
    29    28    29   ar
    30     6     1    1
    31    29    23   ar
    32     9     7    1
    33    18    13    1
    34    17    19    1
@<TRIPOS>MOLECULE
*****
 31 34 0 0 0
SMALL
GASTEIGER

@<TRIPOS>ATOM
      1 C          63.1047   85.7000   12.5047 C.3     1  UNL1        0.0795
      2 C          63.9185   85.2911   13.6965 C.3     1  UNL1        0.0178
      3 C          64.4653   86.3346   14.6250 C.3     1  UNL1        0.0029
      4 C          64.1983   87.7869   14.3618 C.3     1  UNL1        0.0178
      5 C          63.3845   88.1958   13.1700 C.3     1  UNL1        0.0799
      6 N          62.8377   87.1523   12.2414 N.3     1  UNL1       -0.1583
      7 C          63.1174   89.6482   12.9066 C.3     1  UNL1        0.0237
      8 C          62.3804   90.9017   12.5387 C.3     1  UNL1        0.0019
      9 C          61.6713   89.5801   12.5139 C.3     1  UNL1        0.0019
     10 C          64.4708   90.2206   13.2079 C.3     1  UNL1        0.0866
     11 C          64.6706   91.0720   14.4266 C.2     1  UNL1        0.2257
     12 O          63.5247   91.3246   15.3611 O.2     1  UNL1       -0.2749
     13 N          66.0161   91.6708   14.7108 N.am    1  UNL1       -0.2770
     14 C          66.3652   92.5385   15.8835 C.3     1  UNL1        0.0960
     15 C          67.8137   92.9111   15.7696 C.3     1  UNL1        0.0525
     16 C          68.3599   92.2737   14.5266 C.3     1  UNL1        0.1320
     17 O          69.7696   92.3835   14.0257 O.3     1  UNL1       -0.3827
     18 C          67.2490   91.5072   13.8721 C.3     1  UNL1        0.1225
     19 H          69.8606   91.8781   13.2028 H       1  UNL1        0.2104
     20 S          62.0238   87.5613   11.0495 S.O2    1  UNL1        0.0632
     21 O          60.7745   87.1150   11.7496 O.2     1  UNL1       -0.1528
     22 O          62.9376   88.0400   10.1787 O.2     1  UNL1       -0.1528
     23 C          61.2100   87.9702    9.8578 C.ar    1  UNL1        0.1222
     24 C          60.5709   86.9253    8.9917 C.ar    1  UNL1        0.0208
     25 C          59.7570   87.3343    7.8000 C.ar    1  UNL1        0.0128
     26 C          59.5822   88.7880    7.4741 C.ar    1  UNL1        0.0578
     27 CL         58.7683   89.1969    6.2824 Cl      1  UNL1       -0.0822
     28 C          60.2212   89.8328    8.3401 C.ar    1  UNL1        0.0128
     29 C          61.0352   89.4239    9.5320 C.ar    1  UNL1        0.0208
     30 C          63.4940   83.7941   10.7825 C.3     1  UNL1        0.0015
     31 C          62.5579   84.6565   11.5761 C.3     1  UNL1        0.0177
@<TRIPOS>BOND
     1    30    31    1
     2     1    31    1
     3     1     2    1
     4     2     3    1
     5     3     4    1
     6     4     5    1
     7     5     7    1
     8     7    10    1
     9    10    11    1
    10    11    12    2
    11    11    13   am
    12    13    14    1
    13    14    15    1
    14    15    16    1
    15    16    17    1
    16    16    18    1
    17     7     8    1
    18     8     9    1
    19     5     6    1
    20     6    20    1
    21    20    21    2
    22    20    22    2
    23    20    23    1
    24    23    24   ar
    25    24    25   ar
    26    25    26   ar
    27    26    27    1
    28    26    28   ar
    29    28    29   ar
    30     6     1    1
    31    29    23   ar
    32     9     7    1
    33    18    13    1
    34    17    19    1
@<TRIPOS>MOLECULE
*****
 31 34 0 0 0
SMALL
GASTEIGER

@<TRIPOS>ATOM
      1 C          65.6417   91.7554   12.7804 C.3     1  UNL1        0.0795
      2 C          65.9485   92.7065   11.6618 C.3     1  UNL1        0.0178
      3 C          65.0119   92.8199   10.4956 C.3     1  UNL1        0.0029
      4 C          63.7686   91.9822   10.4480 C.3     1  UNL1        0.0178
      5 C          63.4618   91.0311   11.5665 C.3     1  UNL1        0.0799
      6 N          64.3983   90.9177   12.7327 N.3     1  UNL1       -0.1583
      7 C          62.2184   90.1934   11.5190 C.3     1  UNL1        0.0237
      8 C          60.8875   89.6226   11.9100 C.3     1  UNL1        0.0019
      9 C          61.5345   90.6712   12.7656 C.3     1  UNL1        0.0019
     10 C          62.4705   89.4247   10.2558 C.3     1  UNL1        0.0866
     11 C          61.3162   88.9053    9.4509 C.2     1  UNL1        0.2257
     12 O          60.0878   89.7472    9.2717 O.2     1  UNL1       -0.2749
     13 N          61.3903   87.5441    8.8252 N.am    1  UNL1       -0.2770
     14 C          60.3210   86.8946    7.9978 C.3     1  UNL1        0.0960
     15 C          60.8166   85.5424    7.5783 C.3     1  UNL1        0.0525
     16 C          62.1922   85.3562    8.1465 C.3     1  UNL1        0.1320
     17 O          63.0609   84.1454    7.9743 O.3     1  UNL1       -0.3827
     18 C          62.5469   86.5933    8.9171 C.3     1  UNL1        0.1225
     19 H          63.9001   84.2804    8.4416 H       1  UNL1        0.2104
     20 S          64.0915   89.9665   13.8513 S.O2    1  UNL1        0.0632
     21 O          63.7846   91.1256   14.7527 O.2     1  UNL1       -0.1528
     22 O          64.2926   88.7473   13.3078 O.2     1  UNL1       -0.1528
     23 C          63.7846   89.0155   14.9699 C.ar    1  UNL1        0.1222
     24 C          63.1555   89.5221   16.2339 C.ar    1  UNL1        0.0208
     25 C          62.8487   88.5710   17.3525 C.ar    1  UNL1        0.0128
     26 C          63.1709   87.1133   17.2072 C.ar    1  UNL1        0.0578
     27 CL         62.8641   86.1622   18.3257 Cl      1  UNL1       -0.0822
     28 C          63.8000   86.6066   15.9433 C.ar    1  UNL1        0.0128
     29 C          64.1069   87.5577   14.8246 C.ar    1  UNL1        0.0208
     30 C          66.9481   92.8645   14.7331 C.3     1  UNL1        0.0015
     31 C          66.5782   91.6420   13.9465 C.3     1  UNL1        0.0177
@<TRIPOS>BOND
     1    30    31    1
     2     1    31    1
     3     1     2    1
     4     2     3    1
     5     3     4    1
     6     4     5    1
     7     5     7    1
     8     7    10    1
     9    10    11    1
    10    11    12    2
    11    11    13   am
    12    13    14    1
    13    14    15    1
    14    15    16    1
    15    16    17    1
    16    16    18    1
    17     7     8    1
    18     8     9    1
    19     5     6    1
    20     6    20    1
    21    20    21    2
    22    20    22    2
    23    20    23    1
    24    23    24   ar
    25    24    25   ar
    26    25    26   ar
    27    26    27    1
    28    26    28   ar
    29    28    29   ar
    30     6     1    1
    31    29    23   ar
    32     9     7    1
    33    18    13    1
    34    17    19    1
@<TRIPOS>MOLECULE
*****
 31 34 0 0 0
SMALL
GASTEIGER

@<TRIPOS>ATOM
      1 C          62.8239   82.8752   14.1909 C.3     1  UNL1        0.0795
      2 C          62.5121   81.4232   13.9804 C.3     1  UNL1        0.0178
      3 C          62.3821   80.8781   12.5890 C.3     1  UNL1        0.0029
      4 C          62.5640   81.7849   11.4081 C.3     1  UNL1        0.0178
      5 C          62.8758   83.2369   11.6187 C.3     1  UNL1        0.0799
      6 N          63.0058   83.7821   13.0101 N.3     1  UNL1       -0.1583
      7 C          63.0577   84.1439   10.4378 C.3     1  UNL1        0.0237
      8 C          63.6878   84.7861    9.2375 C.3     1  UNL1        0.0019
      9 C          64.4115   83.6964    9.9717 C.3     1  UNL1        0.0019
     10 C          61.7672   84.9063   10.4938 C.3     1  UNL1        0.0866
     11 C          61.4066   85.8527    9.3873 C.2     1  UNL1        0.2257
     12 O          61.5913   85.4397    7.9572 O.2     1  UNL1       -0.2749
     13 N          60.8613   87.2120    9.7109 N.am    1  UNL1       -0.2770
     14 C          60.4586   88.2603    8.7163 C.3     1  UNL1        0.0960
     15 C          59.9713   89.4579    9.4767 C.3     1  UNL1        0.0525
     16 C          60.0728   89.1499   10.9412 C.3     1  UNL1        0.1320
     17 O          59.6913   90.0687   12.0639 O.3     1  UNL1       -0.3827
     18 C          60.6228   87.7619   11.0860 C.3     1  UNL1        0.1225
     19 H          59.8546   89.6276   12.9123 H       1  UNL1        0.2104
     20 S          63.3177   85.2342   13.2205 S.O2    1  UNL1        0.0632
     21 O          64.7569   84.8896   13.4653 O.2     1  UNL1       -0.1528
     22 O          62.1288   85.8513   13.0527 O.2     1  UNL1       -0.1528
     23 C          63.6296   86.6862   13.4310 C.ar    1  UNL1        0.1222
     24 C          64.3360   87.1285   14.6783 C.ar    1  UNL1        0.0208
     25 C          64.6478   88.5805   14.8887 C.ar    1  UNL1        0.0128
     26 C          64.2534   89.5903   13.8521 C.ar    1  UNL1        0.0578
     27 CL         64.5653   91.0423   14.0626 Cl      1  UNL1       -0.0822
     28 C          63.5470   89.1481   12.6049 C.ar    1  UNL1        0.0128
     29 C          63.2351   87.6960   12.3944 C.ar    1  UNL1        0.0208
     30 C          62.0495   84.5249   16.0425 C.3     1  UNL1        0.0015
     31 C          62.9539   83.4203   15.5823 C.3     1  UNL1        0.0177
@<TRIPOS>BOND
     1    30    31    1
     2     1    31    1
     3     1     2    1
     4     2     3    1
     5     3     4    1
     6     4     5    1
     7     5     7    1
     8     7    10    1
     9    10    11    1
    10    11    12    2
    11    11    13   am
    12    13    14    1
    13    14    15    1
    14    15    16    1
    15    16    17    1
    16    16    18    1
    17     7     8    1
    18     8     9    1
    19     5     6    1
    20     6    20    1
    21    20    21    2
    22    20    22    2
    23    20    23    1
    24    23    24   ar
    25    24    25   ar
    26    25    26   ar
    27    26    27    1
    28    26    28   ar
    29    28    29   ar
    30     6     1    1
    31    29    23   ar
    32     9     7    1
    33    18    13    1
    34    17    19    1
@<TRIPOS>MOLECULE
*****
 31 34 0 0 0
SMALL
GASTEIGER

@<TRIPOS>ATOM
      1 C          62.1997   94.0059   -2.3347 C.3     1  UNL1        0.0795
      2 C          63.6808   93.8283   -2.1776 C.3     1  UNL1        0.0178
      3 C          64.3019   93.8806   -0.8133 C.3     1  UNL1        0.0029
      4 C          63.4420   94.1107    0.3940 C.3     1  UNL1        0.0178
      5 C          61.9609   94.2883    0.2369 C.3     1  UNL1        0.0799
      6 N          61.3397   94.2360   -1.1274 N.3     1  UNL1       -0.1583
      7 C          61.1009   94.5184    1.4442 C.3     1  UNL1        0.0237
      8 C          60.4074   95.2343    2.5652 C.3     1  UNL1        0.0019
      9 C          61.2817   95.9976    1.6149 C.3     1  UNL1        0.0019
     10 C          60.6214   93.1190    1.6928 C.3     1  UNL1        0.0866
     11 C          61.0332   92.3957    2.9407 C.2     1  UNL1        0.2257
     12 O          62.4874   92.1711    3.2321 O.2     1  UNL1       -0.2749
     13 N          59.9909   91.8969    3.8972 N.am    1  UNL1       -0.2770
     14 C          60.2498   91.1610    5.1784 C.3     1  UNL1        0.0960
     15 C          58.9256   90.8559    5.8134 C.3     1  UNL1        0.0525
     16 C          57.8483   91.4031    4.9247 C.3     1  UNL1        0.1320
     17 O          56.3717   91.3213    5.1761 O.3     1  UNL1       -0.3827
     18 C          58.5066   92.0465    3.7404 C.3     1  UNL1        0.1225
     19 H          55.8956   91.7523    4.4492 H       1  UNL1        0.2104
     20 S          59.8585   94.4136   -1.2844 S.O2    1  UNL1        0.0632
     21 O          59.6734   92.9265   -1.2206 O.2     1  UNL1       -0.1528
     22 O          59.6977   95.7510   -1.3744 O.2     1  UNL1       -0.1528
     23 C          58.3774   94.5912   -1.4415 C.ar    1  UNL1        0.1222
     24 C          57.5211   93.4276   -1.8450 C.ar    1  UNL1        0.0208
     25 C          56.0400   93.6052   -2.0020 C.ar    1  UNL1        0.0128
     26 C          55.4151   94.9464   -1.7555 C.ar    1  UNL1        0.0578
     27 CL         53.9340   95.1240   -1.9125 Cl      1  UNL1       -0.0822
     28 C          56.2713   96.1100   -1.3520 C.ar    1  UNL1        0.0128
     29 C          57.7525   95.9324   -1.1949 C.ar    1  UNL1        0.0208
     30 C          62.3738   94.3676   -4.9015 C.3     1  UNL1        0.0015
     31 C          61.5785   93.9536   -3.6990 C.3     1  UNL1        0.0177
@<TRIPOS>BOND
     1    30    31    1
     2     1    31    1
     3     1     2    1
     4     2     3    1
     5     3     4    1
     6     4     5    1
     7     5     7    1
     8     7    10    1
     9    10    11    1
    10    11    12    2
    11    11    13   am
    12    13    14    1
    13    14    15    1
    14    15    16    1
    15    16    17    1
    16    16    18    1
    17     7     8    1
    18     8     9    1
    19     5     6    1
    20     6    20    1
    21    20    21    2
    22    20    22    2
    23    20    23    1
    24    23    24   ar
    25    24    25   ar
    26    25    26   ar
    27    26    27    1
    28    26    28   ar
    29    28    29   ar
    30     6     1    1
    31    29    23   ar
    32     9     7    1
    33    18    13    1
    34    17    19    1
@<TRIPOS>MOLECULE
*****
 31 34 0 0 0
SMALL
GASTEIGER

@<TRIPOS>ATOM
      1 C          63.9505   95.0034   -0.1603 C.3     1  UNL1        0.0795
      2 C          64.5087   95.8189   -1.2888 C.3     1  UNL1        0.0178
      3 C          63.5954   96.3498   -2.3537 C.3     1  UNL1        0.0029
      4 C          62.1241   96.0652   -2.2902 C.3     1  UNL1        0.0178
      5 C          61.5660   95.2497   -1.1618 C.3     1  UNL1        0.0799
      6 N          62.4792   94.7188   -0.0969 N.3     1  UNL1       -0.1583
      7 C          60.0945   94.9651   -1.0983 C.3     1  UNL1        0.0237
      8 C          58.6523   95.0807   -0.7026 C.3     1  UNL1        0.0019
      9 C          59.6674   96.0186   -0.1196 C.3     1  UNL1        0.0019
     10 C          60.0107   93.8128   -2.0548 C.3     1  UNL1        0.0866
     11 C          59.3261   93.9850   -3.3784 C.2     1  UNL1        0.2257
     12 O          59.7623   95.0749   -4.3121 O.2     1  UNL1       -0.2749
     13 N          58.2053   93.0675   -3.7681 N.am    1  UNL1       -0.2770
     14 C          57.4305   93.1177   -5.0516 C.3     1  UNL1        0.0960
     15 C          56.4089   92.0199   -5.0195 C.3     1  UNL1        0.0525
     16 C          56.5522   91.2912   -3.7163 C.3     1  UNL1        0.1320
     17 O          55.7298   90.1205   -3.2655 O.3     1  UNL1       -0.3827
     18 C          57.6625   91.9386   -2.9429 C.3     1  UNL1        0.1225
     19 H          56.0249   89.8376   -2.3859 H       1  UNL1        0.2104
     20 S          61.9210   93.9033    1.0316 S.O2    1  UNL1        0.0632
     21 O          61.7908   95.1443    1.8640 O.2     1  UNL1       -0.1528
     22 O          61.9131   92.6420    0.5504 O.2     1  UNL1       -0.1528
     23 C          61.3628   93.0878    2.1601 C.ar    1  UNL1        0.1222
     24 C          62.2468   92.1294    2.9017 C.ar    1  UNL1        0.0208
     25 C          61.6887   91.3139    4.0302 C.ar    1  UNL1        0.0128
     26 C          60.2465   91.4568    4.4170 C.ar    1  UNL1        0.0578
     27 CL         59.6883   90.6414    5.5455 Cl      1  UNL1       -0.0822
     28 C          59.3625   92.4152    3.6755 C.ar    1  UNL1        0.0128
     29 C          59.9206   93.2307    2.5469 C.ar    1  UNL1        0.0208
     30 C          65.5200   93.1348    0.7314 C.3     1  UNL1        0.0015
     31 C          64.8638   94.4725    0.9046 C.3     1  UNL1        0.0177
@<TRIPOS>BOND
     1    30    31    1
     2     1    31    1
     3     1     2    1
     4     2     3    1
     5     3     4    1
     6     4     5    1
     7     5     7    1
     8     7    10    1
     9    10    11    1
    10    11    12    2
    11    11    13   am
    12    13    14    1
    13    14    15    1
    14    15    16    1
    15    16    17    1
    16    16    18    1
    17     7     8    1
    18     8     9    1
    19     5     6    1
    20     6    20    1
    21    20    21    2
    22    20    22    2
    23    20    23    1
    24    23    24   ar
    25    24    25   ar
    26    25    26   ar
    27    26    27    1
    28    26    28   ar
    29    28    29   ar
    30     6     1    1
    31    29    23   ar
    32     9     7    1
    33    18    13    1
    34    17    19    1
