@<TRIPOS>MOLECULE
*****
 39 44 0 0 0
SMALL
GASTEIGER

@<TRIPOS>ATOM
      1 C          61.2527   86.6718   11.1076 C.ar    1  UNL1        0.1879
      2 N          60.6902   87.8190   11.8934 N.ar    1  UNL1       -0.1271
      3 N          60.2449   88.8719   10.9222 N.ar    1  UNL1       -0.1330
      4 C          60.5322   88.3754    9.5362 C.ar    1  UNL1        0.1468
      5 N          61.1551   87.0157    9.6508 N.ar    1  UNL1       -0.2739
      6 C          61.6018   86.1514    8.5091 C.ar    1  UNL1        0.0939
      7 C          63.0546   85.8149    8.3470 C.ar    1  UNL1        0.0199
      8 C          63.5013   84.9506    7.2052 C.ar    1  UNL1        0.0016
      9 C          62.4953   84.4230    6.2256 C.ar    1  UNL1        0.0024
     10 C          61.0426   84.7595    6.3877 C.ar    1  UNL1        0.0311
     11 C          60.5959   85.6238    7.5295 C.ar    1  UNL1        0.1562
     12 F          59.1432   85.9604    7.6916 F       1  UNL1       -0.2026
     13 C          62.9374   82.8665   12.8199 C.ar    1  UNL1        0.1576
     14 C          62.6029   82.9484   11.3600 C.ar    1  UNL1        0.0402
     15 C          62.0414   84.2169   10.7893 C.ar    1  UNL1        0.0254
     16 C          61.8143   85.4034   11.6784 C.ar    1  UNL1        0.1176
     17 N          62.1488   85.3215   13.1384 N.ar    1  UNL1       -0.2376
     18 C          62.7104   84.0531   13.7092 C.ar    1  UNL1        0.1357
     19 O          63.4990   81.5982   13.3907 O.3     1  UNL1       -0.4739
     20 C          61.1352   80.7300   14.0299 C.3     1  UNL1        0.0512
     21 C          62.5828   80.4634   13.7413 C.3     1  UNL1        0.2056
     22 C          60.2468   89.1097    8.2598 C.3     1  UNL1        0.0624
     23 C          59.3928   88.8490    7.0544 C.3     1  UNL1        0.0272
     24 C          59.8431   90.1481    6.4546 C.3     1  UNL1        0.0727
     25 C          60.6970   90.4086    7.6600 C.3     1  UNL1        0.0272
     26 N          59.5576   90.8824    5.1781 N.am    1  UNL1       -0.3024
     27 C          60.6897   91.4033    4.3433 C.2     1  UNL1        0.2473
     28 O          62.1073   91.1898    4.7848 O.2     1  UNL1       -0.2701
     29 H          58.6272   91.0225    4.8883 H       1  UNL1        0.1497
     30 C          60.4043   92.1375    3.0668 C.ar    1  UNL1        0.0724
     31 C          58.9863   92.3817    2.6430 C.ar    1  UNL1        0.0061
     32 C          58.7008   93.1160    1.3666 C.ar    1  UNL1        0.0018
     33 C          59.8334   93.6061    0.5139 C.ar    1  UNL1        0.0206
     34 C          61.2514   93.3619    0.9376 C.ar    1  UNL1        0.0991
     35 N          62.3840   93.8520    0.0849 N.ar    1  UNL1       -0.2407
     36 C          63.8020   93.6078    0.5087 C.ar    1  UNL1        0.1195
     37 C          64.0874   92.8735    1.7852 C.ar    1  UNL1        0.1195
     38 N          62.9549   92.3834    2.6379 N.ar    1  UNL1       -0.2405
     39 C          61.5369   92.6276    2.2141 C.ar    1  UNL1        0.1033
@<TRIPOS>BOND
     1    20    21    1
     2    21    19    1
     3    19    13    1
     4    13    14   ar
     5    14    15   ar
     6    15    16   ar
     7    16     1    1
     8     1     2   ar
     9     2     3   ar
    10     3     4   ar
    11    22     4    1
    12    22    23    1
    13    23    24    1
    14    24    26    1
    15    26    27   am
    16    27    28    2
    17    27    30    1
    18    30    31   ar
    19    31    32   ar
    20    32    33   ar
    21    33    34   ar
    22    34    35   ar
    23    35    36   ar
    24    36    37   ar
    25    37    38   ar
    26    38    39   ar
    27    24    25    1
    28     4     5   ar
    29     5     6    1
    30     6     7   ar
    31     7     8   ar
    32     8     9   ar
    33     9    10   ar
    34    10    11   ar
    35    11    12    1
    36    16    17   ar
    37    17    18   ar
    38    18    13   ar
    39     5     1   ar
    40    11     6   ar
    41    25    22    1
    42    39    30   ar
    43    39    34   ar
    44    26    29    1
@<TRIPOS>MOLECULE
*****
 39 44 0 0 0
SMALL
GASTEIGER

@<TRIPOS>ATOM
      1 C          60.6439   86.5578    9.0347 C.ar    1  UNL1        0.1879
      2 N          59.9077   85.7808    7.9838 N.ar    1  UNL1       -0.1271
      3 N          59.4875   86.7385    6.9085 N.ar    1  UNL1       -0.1330
      4 C          59.9639   88.1074    7.2949 C.ar    1  UNL1        0.1468
      5 N          60.6786   87.9957    8.6089 N.ar    1  UNL1       -0.2739
      6 C          61.3160   89.1238    9.3646 C.ar    1  UNL1        0.0939
      7 C          62.8060   89.2949    9.3410 C.ar    1  UNL1        0.0199
      8 C          63.4434   90.4230   10.0967 C.ar    1  UNL1        0.0016
      9 C          62.5909   91.3800   10.8759 C.ar    1  UNL1        0.0024
     10 C          61.1009   91.2089   10.8996 C.ar    1  UNL1        0.0311
     11 C          60.4635   90.0808   10.1439 C.ar    1  UNL1        0.1562
     12 F          58.9735   89.9097   10.1675 F       1  UNL1       -0.2026
     13 C          62.4340   84.8711   12.8031 C.ar    1  UNL1        0.1576
     14 C          62.6344   84.1637   11.4957 C.ar    1  UNL1        0.0402
     15 C          62.0377   84.7260   10.2396 C.ar    1  UNL1        0.0254
     16 C          61.2405   85.9956   10.2909 C.ar    1  UNL1        0.1176
     17 N          61.0401   86.7030   11.5983 N.ar    1  UNL1       -0.2376
     18 C          61.6368   86.1408   12.8544 C.ar    1  UNL1        0.1357
     19 O          63.0306   84.3089   14.0592 O.3     1  UNL1       -0.4739
     20 C          64.6861   86.0627   15.0256 C.3     1  UNL1        0.0512
     21 C          64.4212   84.6958   14.4674 C.3     1  UNL1        0.2056
     22 C          59.7612   89.3668    6.5057 C.3     1  UNL1        0.0624
     23 C          60.6679   90.4031    5.9106 C.3     1  UNL1        0.0272
     24 C          59.4746   91.1479    5.3897 C.3     1  UNL1        0.0727
     25 C          58.5680   90.1116    5.9849 C.3     1  UNL1        0.0272
     26 N          59.2719   92.4074    4.6006 N.am    1  UNL1       -0.3024
     27 C          60.2058   92.7469    3.4770 C.2     1  UNL1        0.2473
     28 O          61.3424   91.8270    3.1425 O.2     1  UNL1       -0.2701
     29 H          58.5259   93.0111    4.8201 H       1  UNL1        0.1497
     30 C          60.0031   94.0063    2.6879 C.ar    1  UNL1        0.0724
     31 C          60.1524   95.3415    3.3548 C.ar    1  UNL1        0.0061
     32 C          59.9497   96.6010    2.5657 C.ar    1  UNL1        0.0018
     33 C          59.5977   96.5252    1.1096 C.ar    1  UNL1        0.0206
     34 C          59.4484   95.1900    0.4425 C.ar    1  UNL1        0.0991
     35 N          59.0964   95.1142   -1.0136 N.ar    1  UNL1       -0.2407
     36 C          58.9471   93.7790   -1.6806 C.ar    1  UNL1        0.1195
     37 C          59.1498   92.5196   -0.8914 C.ar    1  UNL1        0.1195
     38 N          59.5018   92.5953    0.5647 N.ar    1  UNL1       -0.2405
     39 C          59.6511   93.9305    1.2317 C.ar    1  UNL1        0.1033
@<TRIPOS>BOND
     1    20    21    1
     2    21    19    1
     3    19    13    1
     4    13    14   ar
     5    14    15   ar
     6    15    16   ar
     7    16     1    1
     8     1     2   ar
     9     2     3   ar
    10     3     4   ar
    11    22     4    1
    12    22    23    1
    13    23    24    1
    14    24    26    1
    15    26    27   am
    16    27    28    2
    17    27    30    1
    18    30    31   ar
    19    31    32   ar
    20    32    33   ar
    21    33    34   ar
    22    34    35   ar
    23    35    36   ar
    24    36    37   ar
    25    37    38   ar
    26    38    39   ar
    27    24    25    1
    28     4     5   ar
    29     5     6    1
    30     6     7   ar
    31     7     8   ar
    32     8     9   ar
    33     9    10   ar
    34    10    11   ar
    35    11    12    1
    36    16    17   ar
    37    17    18   ar
    38    18    13   ar
    39     5     1   ar
    40    11     6   ar
    41    25    22    1
    42    39    30   ar
    43    39    34   ar
    44    26    29    1
