@<TRIPOS>MOLECULE
*****
 25 28 0 0 0
SMALL
GASTEIGER

@<TRIPOS>ATOM
      1 C          64.3855   89.4828   14.0809 C.ar    1  UNL1        0.0177
      2 C          63.5750   89.7089   12.8392 C.ar    1  UNL1        0.0046
      3 C          62.9558   88.5441   12.1253 C.ar    1  UNL1        0.0374
      4 C          63.1472   87.1531   12.6531 C.ar    1  UNL1        0.1478
      5 N          62.6618   85.8195   12.1671 N.ar    1  UNL1       -0.2264
      6 C          63.1723   84.7693   13.1085 C.ar    1  UNL1        0.1004
      7 C          63.9733   85.4537   14.1762 C.ar    1  UNL1        0.1006
      8 N          63.9577   86.9270   13.8948 N.ar    1  UNL1       -0.2875
      9 C          64.5769   88.0918   14.6087 C.ar    1  UNL1        0.0814
     10 C          62.9253   83.2936   13.0010 C.ar    1  UNL1        0.0192
     11 C          63.2509   82.5694   11.7284 C.ar    1  UNL1        0.0024
     12 C          63.0039   81.0938   11.6209 C.ar    1  UNL1        0.0114
     13 C          62.4314   80.3424   12.7860 C.ar    1  UNL1        0.0577
     14 CL         62.1845   78.8668   12.6785 Cl      1  UNL1       -0.0822
     15 C          62.1059   81.0666   14.0586 C.ar    1  UNL1        0.0114
     16 C          62.3528   82.5422   14.1661 C.ar    1  UNL1        0.0024
     17 C          66.9912   92.2905   15.1188 C.ar    1  UNL1        0.0070
     18 C          66.2431   92.9774   16.2228 C.ar    1  UNL1       -0.0019
     19 C          64.8758   92.4994   16.6128 C.ar    1  UNL1       -0.0002
     20 C          64.2566   91.3345   15.8988 C.ar    1  UNL1        0.0000
     21 C          65.0047   90.6477   14.7949 C.ar    1  UNL1        0.0012
     22 C          66.3720   91.1257   14.4049 C.ar    1  UNL1       -0.0018
     23 O          69.1519   92.0152   13.7026 O.3     1  UNL1       -0.3772
     24 C          68.3585   92.7685   14.7289 C.3     1  UNL1        0.1636
     25 H          70.0062   92.4545   13.5680 H       1  UNL1        0.2109
@<TRIPOS>BOND
     1    23    24    1
     2    24    17    1
     3    17    18   ar
     4    18    19   ar
     5    19    20   ar
     6    20    21   ar
     7    21     1    1
     8     1     2   ar
     9     2     3   ar
    10     3     4   ar
    11     4     5   ar
    12     5     6   ar
    13     6    10    1
    14    10    11   ar
    15    11    12   ar
    16    12    13   ar
    17    13    14    1
    18    13    15   ar
    19    15    16   ar
    20     6     7   ar
    21     7     8   ar
    22     8     9   ar
    23    21    22   ar
    24    22    17   ar
    25     9     1   ar
    26     8     4   ar
    27    16    10   ar
    28    23    25    1
@<TRIPOS>MOLECULE
*****
 25 28 0 0 0
SMALL
GASTEIGER

@<TRIPOS>ATOM
      1 C          61.6565   88.2542   10.3855 C.ar    1  UNL1        0.0177
      2 C          61.8953   87.1561   11.3791 C.ar    1  UNL1        0.0046
      3 C          62.8306   87.3771   12.5307 C.ar    1  UNL1        0.0374
      4 C          63.5271   88.6961   12.6888 C.ar    1  UNL1        0.1478
      5 N          64.4971   89.2024   13.7150 N.ar    1  UNL1       -0.2264
      6 C          64.8576   90.6133   13.3557 C.ar    1  UNL1        0.1004
      7 C          64.1106   90.9791   12.1074 C.ar    1  UNL1        0.1006
      8 N          63.2883   89.7942   11.6952 N.ar    1  UNL1       -0.2875
      9 C          62.3530   89.5732   10.5436 C.ar    1  UNL1        0.0814
     10 C          65.7998   91.5025   14.1118 C.ar    1  UNL1        0.0192
     11 C          67.0665   91.9769   13.4634 C.ar    1  UNL1        0.0024
     12 C          68.0087   92.8660   14.2195 C.ar    1  UNL1        0.0114
     13 C          67.6842   93.2807   15.6240 C.ar    1  UNL1        0.0577
     14 CL         68.6264   94.1699   16.3802 Cl      1  UNL1       -0.0822
     15 C          66.4175   92.8063   16.2724 C.ar    1  UNL1        0.0114
     16 C          65.4753   91.9172   15.5163 C.ar    1  UNL1        0.0024
     17 C          59.3877   88.9643    7.2077 C.ar    1  UNL1        0.0070
     18 C          58.8503   87.5915    6.9305 C.ar    1  UNL1       -0.0019
     19 C          59.2484   86.4396    7.8050 C.ar    1  UNL1       -0.0002
     20 C          60.1838   86.6605    8.9567 C.ar    1  UNL1        0.0000
     21 C          60.7211   88.0333    9.2338 C.ar    1  UNL1        0.0012
     22 C          60.3230   89.1852    8.3594 C.ar    1  UNL1       -0.0018
     23 O          60.0254   90.8310    5.5169 O.3     1  UNL1       -0.3772
     24 C          58.9896   90.1162    6.3332 C.3     1  UNL1        0.1636
     25 H          59.6038   91.5444    5.0127 H       1  UNL1        0.2109
@<TRIPOS>BOND
     1    23    24    1
     2    24    17    1
     3    17    18   ar
     4    18    19   ar
     5    19    20   ar
     6    20    21   ar
     7    21     1    1
     8     1     2   ar
     9     2     3   ar
    10     3     4   ar
    11     4     5   ar
    12     5     6   ar
    13     6    10    1
    14    10    11   ar
    15    11    12   ar
    16    12    13   ar
    17    13    14    1
    18    13    15   ar
    19    15    16   ar
    20     6     7   ar
    21     7     8   ar
    22     8     9   ar
    23    21    22   ar
    24    22    17   ar
    25     9     1   ar
    26     8     4   ar
    27    16    10   ar
    28    23    25    1
@<TRIPOS>MOLECULE
*****
 25 28 0 0 0
SMALL
GASTEIGER

@<TRIPOS>ATOM
      1 C          64.5963   89.8736   15.0665 C.ar    1  UNL1        0.0177
      2 C          63.7747   89.7376   16.3141 C.ar    1  UNL1        0.0046
      3 C          63.1463   88.4198   16.6583 C.ar    1  UNL1        0.0374
      4 C          63.3394   87.2380   15.7550 C.ar    1  UNL1        0.1478
      5 N          62.8465   85.8235   15.8335 N.ar    1  UNL1       -0.2264
      6 C          63.3635   85.0852   14.6345 C.ar    1  UNL1        0.1004
      7 C          64.1759   86.0435   13.8149 C.ar    1  UNL1        0.1006
      8 N          64.1610   87.3740   14.5074 N.ar    1  UNL1       -0.2875
      9 C          64.7895   88.6918   14.1632 C.ar    1  UNL1        0.0814
     10 C          63.1122   83.6421   14.3117 C.ar    1  UNL1        0.0192
     11 C          61.8437   82.9820   14.7649 C.ar    1  UNL1        0.0024
     12 C          61.5924   81.5389   14.4421 C.ar    1  UNL1        0.0114
     13 C          62.6095   80.7559   13.6661 C.ar    1  UNL1        0.0577
     14 CL         62.3582   79.3127   13.3432 Cl      1  UNL1       -0.0822
     15 C          63.8780   81.4159   13.2128 C.ar    1  UNL1        0.0114
     16 C          64.1293   82.8590   13.5356 C.ar    1  UNL1        0.0024
     17 C          65.8568   92.9899   12.9571 C.ar    1  UNL1        0.0070
     18 C          66.4817   93.8269   14.0337 C.ar    1  UNL1       -0.0019
     19 C          66.4781   93.3462   15.4545 C.ar    1  UNL1       -0.0002
     20 C          65.8496   92.0284   15.7988 C.ar    1  UNL1        0.0000
     21 C          65.2248   91.1914   14.7223 C.ar    1  UNL1        0.0012
     22 C          65.2284   91.6722   13.3014 C.ar    1  UNL1       -0.0018
     23 O          66.9904   94.3202   11.0348 O.3     1  UNL1       -0.3772
     24 C          65.8604   93.4707   11.5362 C.3     1  UNL1        0.1636
     25 H          66.8388   94.5428   10.1029 H       1  UNL1        0.2109
@<TRIPOS>BOND
     1    23    24    1
     2    24    17    1
     3    17    18   ar
     4    18    19   ar
     5    19    20   ar
     6    20    21   ar
     7    21     1    1
     8     1     2   ar
     9     2     3   ar
    10     3     4   ar
    11     4     5   ar
    12     5     6   ar
    13     6    10    1
    14    10    11   ar
    15    11    12   ar
    16    12    13   ar
    17    13    14    1
    18    13    15   ar
    19    15    16   ar
    20     6     7   ar
    21     7     8   ar
    22     8     9   ar
    23    21    22   ar
    24    22    17   ar
    25     9     1   ar
    26     8     4   ar
    27    16    10   ar
    28    23    25    1
@<TRIPOS>MOLECULE
*****
 25 28 0 0 0
SMALL
GASTEIGER

@<TRIPOS>ATOM
      1 C          63.7974   87.8946   15.4662 C.ar    1  UNL1        0.0177
      2 C          63.2735   87.1865   16.6803 C.ar    1  UNL1        0.0046
      3 C          62.9126   85.7326   16.6032 C.ar    1  UNL1        0.0374
      4 C          63.0755   84.9869   15.3119 C.ar    1  UNL1        0.1478
      5 N          62.8049   83.5602   14.9358 N.ar    1  UNL1       -0.2264
      6 C          63.1615   83.3866   13.4892 C.ar    1  UNL1        0.1004
      7 C          63.6525   84.7060   12.9713 C.ar    1  UNL1        0.1006
      8 N          63.5993   85.6950   14.0978 N.ar    1  UNL1       -0.2875
      9 C          63.9603   87.1488   14.1749 C.ar    1  UNL1        0.0814
     10 C          63.0471   82.1166   12.6991 C.ar    1  UNL1        0.0192
     11 C          63.3550   82.1164   11.2310 C.ar    1  UNL1        0.0024
     12 C          63.2407   80.8465   10.4409 C.ar    1  UNL1        0.0114
     13 C          62.8185   79.5769   11.1189 C.ar    1  UNL1        0.0577
     14 CL         62.7042   78.3069   10.3288 Cl      1  UNL1       -0.0822
     15 C          62.5106   79.5771   12.5870 C.ar    1  UNL1        0.0114
     16 C          62.6250   80.8470   13.3771 C.ar    1  UNL1        0.0024
     17 C          65.4497   91.3989   14.6062 C.ar    1  UNL1        0.0070
     18 C          64.8802   92.2563   15.6974 C.ar    1  UNL1       -0.0019
     19 C          63.9498   91.6598   16.7115 C.ar    1  UNL1       -0.0002
     20 C          63.5889   90.2058   16.6344 C.ar    1  UNL1        0.0000
     21 C          64.1583   89.3485   15.5433 C.ar    1  UNL1        0.0012
     22 C          65.0887   89.9451   14.5291 C.ar    1  UNL1       -0.0018
     23 O          65.9359   92.1533   12.1680 O.3     1  UNL1       -0.3772
     24 C          66.3801   91.9955   13.5920 C.3     1  UNL1        0.1636
     25 H          66.6515   92.5517   11.6483 H       1  UNL1        0.2109
@<TRIPOS>BOND
     1    23    24    1
     2    24    17    1
     3    17    18   ar
     4    18    19   ar
     5    19    20   ar
     6    20    21   ar
     7    21     1    1
     8     1     2   ar
     9     2     3   ar
    10     3     4   ar
    11     4     5   ar
    12     5     6   ar
    13     6    10    1
    14    10    11   ar
    15    11    12   ar
    16    12    13   ar
    17    13    14    1
    18    13    15   ar
    19    15    16   ar
    20     6     7   ar
    21     7     8   ar
    22     8     9   ar
    23    21    22   ar
    24    22    17   ar
    25     9     1   ar
    26     8     4   ar
    27    16    10   ar
    28    23    25    1
@<TRIPOS>MOLECULE
*****
 25 28 0 0 0
SMALL
GASTEIGER

@<TRIPOS>ATOM
      1 C          72.3274   79.6587   11.3045 C.ar    1  UNL1        0.0177
      2 C          72.7740   80.3915   12.5348 C.ar    1  UNL1        0.0046
      3 C          72.8629   79.6698   13.8467 C.ar    1  UNL1        0.0374
      4 C          72.5053   78.2153   13.9284 C.ar    1  UNL1        0.1478
      5 N          72.4958   77.2469   15.0739 N.ar    1  UNL1       -0.2264
      6 C          72.0433   75.9156   14.5515 C.ar    1  UNL1        0.1004
      7 C          71.7732   76.0613   13.0832 C.ar    1  UNL1        0.1006
      8 N          72.0587   77.4826   12.6981 N.ar    1  UNL1       -0.2875
      9 C          71.9698   78.2043   11.3862 C.ar    1  UNL1        0.0814
     10 C          71.8882   74.6591   15.3561 C.ar    1  UNL1        0.0192
     11 C          73.1013   73.9510   15.8823 C.ar    1  UNL1        0.0024
     12 C          72.9462   72.6946   16.6869 C.ar    1  UNL1        0.0114
     13 C          71.5781   72.1463   16.9652 C.ar    1  UNL1        0.0577
     14 CL         71.4229   70.8898   17.7698 Cl      1  UNL1       -0.0822
     15 C          70.3650   72.8544   16.4390 C.ar    1  UNL1        0.0114
     16 C          70.5200   74.1108   15.6344 C.ar    1  UNL1        0.0024
     17 C          72.0824   80.3242    7.3998 C.ar    1  UNL1        0.0070
     18 C          72.0605   81.8238    7.3685 C.ar    1  UNL1       -0.0019
     19 C          72.1276   82.6016    8.6493 C.ar    1  UNL1       -0.0002
     20 C          72.2166   81.8799    9.9613 C.ar    1  UNL1        0.0000
     21 C          72.2384   80.3804    9.9925 C.ar    1  UNL1        0.0012
     22 C          72.1713   79.6026    8.7117 C.ar    1  UNL1       -0.0018
     23 O          70.7213   78.9220    5.6876 O.3     1  UNL1       -0.3772
     24 C          72.0153   79.5463    6.1190 C.3     1  UNL1        0.1636
     25 H          70.8506   78.4596    4.8448 H       1  UNL1        0.2109
@<TRIPOS>BOND
     1    23    24    1
     2    24    17    1
     3    17    18   ar
     4    18    19   ar
     5    19    20   ar
     6    20    21   ar
     7    21     1    1
     8     1     2   ar
     9     2     3   ar
    10     3     4   ar
    11     4     5   ar
    12     5     6   ar
    13     6    10    1
    14    10    11   ar
    15    11    12   ar
    16    12    13   ar
    17    13    14    1
    18    13    15   ar
    19    15    16   ar
    20     6     7   ar
    21     7     8   ar
    22     8     9   ar
    23    21    22   ar
    24    22    17   ar
    25     9     1   ar
    26     8     4   ar
    27    16    10   ar
    28    23    25    1
@<TRIPOS>MOLECULE
*****
 25 28 0 0 0
SMALL
GASTEIGER

@<TRIPOS>ATOM
      1 C          59.4985   88.8391    7.1342 C.ar    1  UNL1        0.0177
      2 C          59.1941   87.3930    6.8772 C.ar    1  UNL1        0.0046
      3 C          59.7274   86.3386    7.8012 C.ar    1  UNL1        0.0374
      4 C          60.5651   86.7304    8.9823 C.ar    1  UNL1        0.1478
      5 N          61.2238   85.9195   10.0587 N.ar    1  UNL1       -0.2264
      6 C          61.9353   86.8646   10.9810 C.ar    1  UNL1        0.1004
      7 C          61.7163   88.2594   10.4745 C.ar    1  UNL1        0.1006
      8 N          60.8695   88.1765    9.2393 N.ar    1  UNL1       -0.2875
      9 C          60.3362   89.2308    8.3152 C.ar    1  UNL1        0.0814
     10 C          62.7269   86.4820   12.1964 C.ar    1  UNL1        0.0192
     11 C          63.4397   87.5368   12.9898 C.ar    1  UNL1        0.0024
     12 C          64.2312   87.1542   14.2052 C.ar    1  UNL1        0.0114
     13 C          64.3100   85.7170   14.6271 C.ar    1  UNL1        0.0577
     14 CL         65.1015   85.3344   15.8425 Cl      1  UNL1       -0.0822
     15 C          63.5972   84.6623   13.8337 C.ar    1  UNL1        0.0114
     16 C          62.8057   85.0448   12.6183 C.ar    1  UNL1        0.0024
     17 C          59.3791   91.8001    4.4945 C.ar    1  UNL1        0.0070
     18 C          57.8987   92.0024    4.3621 C.ar    1  UNL1       -0.0019
     19 C          56.9515   91.1503    5.1538 C.ar    1  UNL1       -0.0002
     20 C          57.4848   90.0959    6.0779 C.ar    1  UNL1        0.0000
     21 C          58.9652   89.8936    6.2102 C.ar    1  UNL1        0.0012
     22 C          59.9123   90.7457    5.4185 C.ar    1  UNL1       -0.0018
     23 O          59.8122   93.4933    2.5720 O.3     1  UNL1       -0.3772
     24 C          60.3262   92.6522    3.7028 C.3     1  UNL1        0.1636
     25 H          60.5491   93.9784    2.1689 H       1  UNL1        0.2109
@<TRIPOS>BOND
     1    23    24    1
     2    24    17    1
     3    17    18   ar
     4    18    19   ar
     5    19    20   ar
     6    20    21   ar
     7    21     1    1
     8     1     2   ar
     9     2     3   ar
    10     3     4   ar
    11     4     5   ar
    12     5     6   ar
    13     6    10    1
    14    10    11   ar
    15    11    12   ar
    16    12    13   ar
    17    13    14    1
    18    13    15   ar
    19    15    16   ar
    20     6     7   ar
    21     7     8   ar
    22     8     9   ar
    23    21    22   ar
    24    22    17   ar
    25     9     1   ar
    26     8     4   ar
    27    16    10   ar
    28    23    25    1
@<TRIPOS>MOLECULE
*****
 25 28 0 0 0
SMALL
GASTEIGER

@<TRIPOS>ATOM
      1 C          59.4810   90.1291    6.1123 C.ar    1  UNL1        0.0177
      2 C          58.1450   90.7281    5.7864 C.ar    1  UNL1        0.0046
      3 C          58.0263   91.7447    4.6899 C.ar    1  UNL1        0.0374
      4 C          59.2435   92.1623    3.9193 C.ar    1  UNL1        0.1478
      5 N          59.4338   93.1350    2.7933 N.ar    1  UNL1       -0.2264
      6 C          60.8875   93.1371    2.4234 C.ar    1  UNL1        0.1004
      7 C          61.5955   92.1658    3.3207 C.ar    1  UNL1        0.1006
      8 N          60.5795   91.5633    4.2452 N.ar    1  UNL1       -0.2875
      9 C          60.6983   90.5467    5.3417 C.ar    1  UNL1        0.0814
     10 C          61.5218   93.9652    1.3454 C.ar    1  UNL1        0.0192
     11 C          62.2738   93.2983    0.2320 C.ar    1  UNL1        0.0024
     12 C          62.9081   94.1263   -0.8460 C.ar    1  UNL1        0.0114
     13 C          62.7903   95.6212   -0.8106 C.ar    1  UNL1        0.0577
     14 CL         63.4246   96.4493   -1.8886 Cl      1  UNL1       -0.0822
     15 C          62.0383   96.2881    0.3028 C.ar    1  UNL1        0.0114
     16 C          61.4040   95.4601    1.3808 C.ar    1  UNL1        0.0024
     17 C          60.2400   88.5024    9.6518 C.ar    1  UNL1        0.0070
     18 C          59.8373   87.0791    9.4019 C.ar    1  UNL1       -0.0019
     19 C          59.3159   86.6726    8.0555 C.ar    1  UNL1       -0.0002
     20 C          59.1971   87.6893    6.9590 C.ar    1  UNL1        0.0000
     21 C          59.5998   89.1124    7.2089 C.ar    1  UNL1        0.0012
     22 C          60.1212   89.5190    8.5553 C.ar    1  UNL1       -0.0018
     23 O          59.8270   89.0003   12.1681 O.3     1  UNL1       -0.3772
     24 C          60.7615   88.9089   10.9982 C.3     1  UNL1        0.1636
     25 H          60.3216   89.2740   12.9563 H       1  UNL1        0.2109
@<TRIPOS>BOND
     1    23    24    1
     2    24    17    1
     3    17    18   ar
     4    18    19   ar
     5    19    20   ar
     6    20    21   ar
     7    21     1    1
     8     1     2   ar
     9     2     3   ar
    10     3     4   ar
    11     4     5   ar
    12     5     6   ar
    13     6    10    1
    14    10    11   ar
    15    11    12   ar
    16    12    13   ar
    17    13    14    1
    18    13    15   ar
    19    15    16   ar
    20     6     7   ar
    21     7     8   ar
    22     8     9   ar
    23    21    22   ar
    24    22    17   ar
    25     9     1   ar
    26     8     4   ar
    27    16    10   ar
    28    23    25    1
@<TRIPOS>MOLECULE
*****
 25 28 0 0 0
SMALL
GASTEIGER

@<TRIPOS>ATOM
      1 C          62.0651   88.5493   10.6665 C.ar    1  UNL1        0.0177
      2 C          62.2267   87.5309   11.7558 C.ar    1  UNL1        0.0046
      3 C          63.1372   87.8103   12.9146 C.ar    1  UNL1        0.0374
      4 C          63.8861   89.1081   12.9840 C.ar    1  UNL1        0.1478
      5 N          64.8473   89.6594   13.9952 N.ar    1  UNL1       -0.2264
      6 C          65.2798   91.0185   13.5307 C.ar    1  UNL1        0.1004
      7 C          64.5859   91.3072   12.2325 C.ar    1  UNL1        0.1006
      8 N          63.7246   90.1265   11.8947 N.ar    1  UNL1       -0.2875
      9 C          62.8141   89.8471   10.7359 C.ar    1  UNL1        0.0814
     10 C          66.2379   91.9292   14.2398 C.ar    1  UNL1        0.0192
     11 C          67.1455   91.3827   15.3017 C.ar    1  UNL1        0.0024
     12 C          68.1036   92.2932   16.0109 C.ar    1  UNL1        0.0114
     13 C          68.1541   93.7502   15.6581 C.ar    1  UNL1        0.0577
     14 CL         69.1122   94.6609   16.3672 Cl      1  UNL1       -0.0822
     15 C          67.2465   94.2967   14.5962 C.ar    1  UNL1        0.0114
     16 C          66.2884   93.3862   13.8871 C.ar    1  UNL1        0.0024
     17 C          60.1879   86.6147    7.7538 C.ar    1  UNL1        0.0070
     18 C          59.3335   87.7112    7.1899 C.ar    1  UNL1       -0.0019
     19 C          59.3897   89.0870    7.7848 C.ar    1  UNL1       -0.0002
     20 C          60.3003   89.3664    8.9437 C.ar    1  UNL1        0.0000
     21 C          61.1546   88.2700    9.5076 C.ar    1  UNL1        0.0012
     22 C          61.0984   86.8941    8.9126 C.ar    1  UNL1       -0.0018
     23 O          61.2521   84.7518    6.2886 O.3     1  UNL1       -0.3772
     24 C          60.1317   85.2389    7.1589 C.3     1  UNL1        0.1636
     25 H          61.0597   83.8497    5.9885 H       1  UNL1        0.2109
@<TRIPOS>BOND
     1    23    24    1
     2    24    17    1
     3    17    18   ar
     4    18    19   ar
     5    19    20   ar
     6    20    21   ar
     7    21     1    1
     8     1     2   ar
     9     2     3   ar
    10     3     4   ar
    11     4     5   ar
    12     5     6   ar
    13     6    10    1
    14    10    11   ar
    15    11    12   ar
    16    12    13   ar
    17    13    14    1
    18    13    15   ar
    19    15    16   ar
    20     6     7   ar
    21     7     8   ar
    22     8     9   ar
    23    21    22   ar
    24    22    17   ar
    25     9     1   ar
    26     8     4   ar
    27    16    10   ar
    28    23    25    1
@<TRIPOS>MOLECULE
*****
 25 28 0 0 0
SMALL
GASTEIGER

@<TRIPOS>ATOM
      1 C          62.9110   84.1741   14.7580 C.ar    1  UNL1        0.0177
      2 C          62.7914   84.6019   16.1907 C.ar    1  UNL1        0.0046
      3 C          63.1319   86.0087   16.5842 C.ar    1  UNL1        0.0374
      4 C          63.5919   86.9877   15.5450 C.ar    1  UNL1        0.1478
      5 N          63.9945   88.4301   15.6332 N.ar    1  UNL1       -0.2264
      6 C          64.3629   88.8936   14.2550 C.ar    1  UNL1        0.1004
      7 C          64.1880   87.7378   13.3151 C.ar    1  UNL1        0.1006
      8 N          63.7115   86.5599   14.1123 N.ar    1  UNL1       -0.2875
      9 C          63.3710   85.1531   13.7188 C.ar    1  UNL1        0.0814
     10 C          64.8251   90.2711   13.8822 C.ar    1  UNL1        0.0192
     11 C          64.3702   90.8920   12.5947 C.ar    1  UNL1        0.0024
     12 C          64.8323   92.2694   12.2219 C.ar    1  UNL1        0.0114
     13 C          65.7493   93.0260   13.1365 C.ar    1  UNL1        0.0577
     14 CL         66.2115   94.4035   12.7637 Cl      1  UNL1       -0.0822
     15 C          66.2042   92.4051   14.4240 C.ar    1  UNL1        0.0114
     16 C          65.7421   91.0277   14.7969 C.ar    1  UNL1        0.0024
     17 C          60.8192   80.8669   14.0971 C.ar    1  UNL1        0.0070
     18 C          61.8896   79.9535   13.5773 C.ar    1  UNL1       -0.0019
     19 C          63.3004   80.4470   13.4511 C.ar    1  UNL1       -0.0002
     20 C          63.6409   81.8539   13.8447 C.ar    1  UNL1        0.0000
     21 C          62.5705   82.7672   14.3644 C.ar    1  UNL1        0.0012
     22 C          61.1597   82.2737   14.4906 C.ar    1  UNL1       -0.0018
     23 O          59.1340   78.9015   14.3153 O.3     1  UNL1       -0.3772
     24 C          59.4083   80.3734   14.2232 C.3     1  UNL1        0.1636
     25 H          58.1782   78.7549   14.3916 H       1  UNL1        0.2109
@<TRIPOS>BOND
     1    23    24    1
     2    24    17    1
     3    17    18   ar
     4    18    19   ar
     5    19    20   ar
     6    20    21   ar
     7    21     1    1
     8     1     2   ar
     9     2     3   ar
    10     3     4   ar
    11     4     5   ar
    12     5     6   ar
    13     6    10    1
    14    10    11   ar
    15    11    12   ar
    16    12    13   ar
    17    13    14    1
    18    13    15   ar
    19    15    16   ar
    20     6     7   ar
    21     7     8   ar
    22     8     9   ar
    23    21    22   ar
    24    22    17   ar
    25     9     1   ar
    26     8     4   ar
    27    16    10   ar
    28    23    25    1
