@<TRIPOS>MOLECULE
*****
 35 39 0 0 0
SMALL
GASTEIGER

@<TRIPOS>ATOM
      1 C          60.5985   87.7313    9.5339 C.ar    1  UNL1        0.1983
      2 N          60.8604   88.9716    8.7321 N.ar    1  UNL1       -0.2122
      3 C          61.8038   89.8378    9.5129 C.ar    1  UNL1        0.1190
      4 C          62.4119   91.1774    9.2203 C.ar    1  UNL1        0.1194
      5 N          63.3411   91.8120   10.2122 N.ar    1  UNL1       -0.2422
      6 C          63.6623   91.1070   11.4966 C.ar    1  UNL1        0.0830
      7 C          64.5916   91.7416   12.4885 C.ar    1  UNL1        0.0223
      8 C          64.9127   91.0366   13.7729 C.ar    1  UNL1        0.0394
      9 C          64.3046   89.6969   14.0655 C.ar    1  UNL1        0.1389
     10 C          63.3753   89.0624   13.0737 C.ar    1  UNL1        0.0399
     11 C          63.0542   89.7674   11.7892 C.ar    1  UNL1        0.0381
     12 C          62.1250   89.1328   10.7974 C.ar    1  UNL1        0.0832
     13 N          61.3800   87.8309   10.8103 N.ar    1  UNL1       -0.2939
     14 C          65.8419   91.6712   14.7648 C.ar    1  UNL1        0.0526
     15 C          67.3072   91.9223   14.5647 C.ar    1  UNL1        0.1007
     16 C          68.1004   91.5830   13.3377 C.3     1  UNL1        0.0557
     17 N          67.8399   92.5724   15.8071 N.ar    1  UNL1       -0.0817
     18 O          66.7039   92.7230   16.7751 O.2     1  UNL1       -0.3581
     19 C          65.4691   92.1660   16.1308 C.ar    1  UNL1        0.1545
     20 C          64.1016   92.1132   16.7449 C.3     1  UNL1        0.0754
     21 N          59.7109   86.5914    9.1302 N.pl3   1  UNL1       -0.3019
     22 H          59.0998   86.1867    9.7875 H       1  UNL1        0.1497
     23 C          59.7543   86.0683    7.7251 C.3     1  UNL1        0.1217
     24 C          61.0177   85.4631    7.1888 C.3     1  UNL1        0.1634
     25 C          62.1213   84.1644    5.2278 C.3     1  UNL1        0.1742
     26 O          60.9504   84.3966    6.1361 O.3     1  UNL1       -0.3493
     27 O          64.6257   88.9919   15.3500 O.3     1  UNL1       -0.4714
     28 C          63.5179   88.5368   16.2530 C.3     1  UNL1        0.2525
     29 C          61.4112   86.8082   11.9072 C.3     1  UNL1        0.1544
     30 C          62.3768   85.6624   11.8371 C.ar    1  UNL1        0.0819
     31 C          62.6030   84.9507   10.5362 C.ar    1  UNL1        0.0167
     32 C          63.5686   83.8050   10.4662 C.ar    1  UNL1        0.0029
     33 C          64.3080   83.3709   11.6970 C.ar    1  UNL1        0.0207
     34 C          64.0819   84.0827   12.9979 C.ar    1  UNL1        0.0985
     35 N          63.1163   85.2284   13.0679 N.ar    1  UNL1       -0.2462
@<TRIPOS>BOND
     1    25    26    1
     2    26    24    1
     3    24    23    1
     4    23    21    1
     5    21     1    1
     6     1     2   ar
     7     2     3   ar
     8     3     4   ar
     9     4     5   ar
    10     5     6   ar
    11     6     7   ar
    12     7     8   ar
    13     8    14    1
    14    14    15   ar
    15    15    16    1
    16    15    17   ar
    17    17    18   ar
    18    18    19   ar
    19    19    20    1
    20     8     9   ar
    21     9    27    1
    22    27    28    1
    23     9    10   ar
    24    10    11   ar
    25    11    12   ar
    26    12    13   ar
    27    13    29    1
    28    29    30    1
    29    30    31   ar
    30    31    32   ar
    31    32    33   ar
    32    33    34   ar
    33    34    35   ar
    34    13     1   ar
    35    35    30   ar
    36    12     3   ar
    37    11     6   ar
    38    19    14   ar
    39    21    22    1
@<TRIPOS>MOLECULE
*****
 35 39 0 0 0
SMALL
GASTEIGER

@<TRIPOS>ATOM
      1 C          64.6708   90.5996   14.9295 C.ar    1  UNL1        0.1983
      2 N          64.8295   89.2146   15.4832 N.ar    1  UNL1       -0.2122
      3 C          64.2561   88.2492   14.4886 C.ar    1  UNL1        0.1190
      4 C          64.1349   86.7541   14.4960 C.ar    1  UNL1        0.1194
      5 N          63.5006   86.0474   13.3349 N.ar    1  UNL1       -0.2422
      6 C          62.9876   86.8358   12.1664 C.ar    1  UNL1        0.0830
      7 C          62.3533   86.1290   11.0052 C.ar    1  UNL1        0.0223
      8 C          61.8402   86.9173    9.8368 C.ar    1  UNL1        0.0394
      9 C          61.9615   88.4125    9.8295 C.ar    1  UNL1        0.1389
     10 C          62.5958   89.1191   10.9906 C.ar    1  UNL1        0.0399
     11 C          63.1088   88.3308   12.1591 C.ar    1  UNL1        0.0381
     12 C          63.7431   89.0375   13.3202 C.ar    1  UNL1        0.0832
     13 N          63.9994   90.4901   13.5927 N.ar    1  UNL1       -0.2939
     14 C          61.2060   86.2106    8.6757 C.ar    1  UNL1        0.0526
     15 C          61.8918   85.2579    7.7419 C.ar    1  UNL1        0.1007
     16 C          63.3324   84.8447    7.8052 C.3     1  UNL1        0.0557
     17 N          60.8842   84.7910    6.7335 N.ar    1  UNL1       -0.0817
     18 O          59.5756   85.4552    7.0442 O.2     1  UNL1       -0.3581
     19 C          59.7745   86.3325    8.2445 C.ar    1  UNL1        0.1545
     20 C          58.7259   87.1826    8.8987 C.3     1  UNL1        0.0754
     21 N          65.1070   91.8708   15.5957 N.pl3   1  UNL1       -0.3019
     22 H          64.4436   92.5644   15.8147 H       1  UNL1        0.1497
     23 C          66.5539   92.0851   15.9280 C.3     1  UNL1        0.1217
     24 C          67.6101   91.7915   14.9042 C.3     1  UNL1        0.1634
     25 C          69.0389   93.7983   15.7297 C.3     1  UNL1        0.1742
     26 O          68.7385   92.7570   14.6927 O.3     1  UNL1       -0.3493
     27 O          61.4485   89.2008    8.6610 O.3     1  UNL1       -0.4714
     28 C          60.2314   90.0638    8.8149 C.3     1  UNL1        0.2525
     29 C          63.6462   91.6327   12.6872 C.3     1  UNL1        0.1544
     30 C          64.7316   92.4689   12.0766 C.ar    1  UNL1        0.0819
     31 C          65.1114   92.2717   10.6390 C.ar    1  UNL1        0.0167
     32 C          66.1967   93.1079   10.0285 C.ar    1  UNL1        0.0029
     33 C          66.9023   94.1414   10.8556 C.ar    1  UNL1        0.0207
     34 C          66.5225   94.3387   12.2933 C.ar    1  UNL1        0.0985
     35 N          65.4372   93.5024   12.9037 N.ar    1  UNL1       -0.2462
@<TRIPOS>BOND
     1    25    26    1
     2    26    24    1
     3    24    23    1
     4    23    21    1
     5    21     1    1
     6     1     2   ar
     7     2     3   ar
     8     3     4   ar
     9     4     5   ar
    10     5     6   ar
    11     6     7   ar
    12     7     8   ar
    13     8    14    1
    14    14    15   ar
    15    15    16    1
    16    15    17   ar
    17    17    18   ar
    18    18    19   ar
    19    19    20    1
    20     8     9   ar
    21     9    27    1
    22    27    28    1
    23     9    10   ar
    24    10    11   ar
    25    11    12   ar
    26    12    13   ar
    27    13    29    1
    28    29    30    1
    29    30    31   ar
    30    31    32   ar
    31    32    33   ar
    32    33    34   ar
    33    34    35   ar
    34    13     1   ar
    35    35    30   ar
    36    12     3   ar
    37    11     6   ar
    38    19    14   ar
    39    21    22    1
@<TRIPOS>MOLECULE
*****
 35 39 0 0 0
SMALL
GASTEIGER

@<TRIPOS>ATOM
      1 C          63.6144   89.9576   15.6744 C.ar    1  UNL1        0.1983
      2 N          63.4195   89.1876   16.9468 N.ar    1  UNL1       -0.2122
      3 C          63.2708   87.7375   16.5931 C.ar    1  UNL1        0.1190
      4 C          63.0550   86.5158   17.4361 C.ar    1  UNL1        0.1194
      5 N          62.9422   85.1678   16.7880 N.ar    1  UNL1       -0.2422
      6 C          63.0452   85.0415   15.2968 C.ar    1  UNL1        0.0830
      7 C          62.9324   83.6934   14.6487 C.ar    1  UNL1        0.0223
      8 C          63.0354   83.5672   13.1576 C.ar    1  UNL1        0.0394
      9 C          63.2513   84.7890   12.3146 C.ar    1  UNL1        0.1389
     10 C          63.3641   86.1370   12.9627 C.ar    1  UNL1        0.0399
     11 C          63.2611   86.2633   14.4538 C.ar    1  UNL1        0.0381
     12 C          63.3739   87.6113   15.1020 C.ar    1  UNL1        0.0832
     13 N          63.5862   88.9833   14.5342 N.ar    1  UNL1       -0.2939
     14 C          62.9226   82.2192   12.5095 C.ar    1  UNL1        0.0526
     15 C          63.6576   81.7663   11.2828 C.ar    1  UNL1        0.1007
     16 C          64.6345   82.5820   10.4889 C.3     1  UNL1        0.0557
     17 N          63.2442   80.3546   10.9894 N.ar    1  UNL1       -0.0817
     18 O          62.2537   79.9349   12.0348 O.2     1  UNL1       -0.3581
     19 C          62.0549   81.0873   12.9742 C.ar    1  UNL1        0.1545
     20 C          61.1478   81.1047   14.1687 C.3     1  UNL1        0.0754
     21 N          63.8041   91.4413   15.5619 N.pl3   1  UNL1       -0.3019
     22 H          63.0229   92.0307   15.4545 H       1  UNL1        0.1497
     23 C          65.1841   92.0269   15.6129 C.3     1  UNL1        0.1217
     24 C          65.9583   92.2342   14.3450 C.3     1  UNL1        0.1634
     25 C          66.0251   93.4398   12.0445 C.3     1  UNL1        0.1742
     26 O          65.2573   92.7119   13.1078 O.3     1  UNL1       -0.3493
     27 O          63.3543   84.6627   10.8235 O.3     1  UNL1       -0.4714
     28 C          62.4622   85.4813    9.9381 C.3     1  UNL1        0.2525
     29 C          63.7428   89.3217   13.0813 C.3     1  UNL1        0.1544
     30 C          62.5294   89.4958   12.2167 C.ar    1  UNL1        0.0819
     31 C          62.6619   89.4632   10.7229 C.ar    1  UNL1        0.0167
     32 C          61.4485   89.6373    9.8584 C.ar    1  UNL1        0.0029
     33 C          60.1027   89.8440   10.4876 C.ar    1  UNL1        0.0207
     34 C          59.9702   89.8766   11.9814 C.ar    1  UNL1        0.0985
     35 N          61.1835   89.7025   12.8459 N.ar    1  UNL1       -0.2462
@<TRIPOS>BOND
     1    25    26    1
     2    26    24    1
     3    24    23    1
     4    23    21    1
     5    21     1    1
     6     1     2   ar
     7     2     3   ar
     8     3     4   ar
     9     4     5   ar
    10     5     6   ar
    11     6     7   ar
    12     7     8   ar
    13     8    14    1
    14    14    15   ar
    15    15    16    1
    16    15    17   ar
    17    17    18   ar
    18    18    19   ar
    19    19    20    1
    20     8     9   ar
    21     9    27    1
    22    27    28    1
    23     9    10   ar
    24    10    11   ar
    25    11    12   ar
    26    12    13   ar
    27    13    29    1
    28    29    30    1
    29    30    31   ar
    30    31    32   ar
    31    32    33   ar
    32    33    34   ar
    33    34    35   ar
    34    13     1   ar
    35    35    30   ar
    36    12     3   ar
    37    11     6   ar
    38    19    14   ar
    39    21    22    1
@<TRIPOS>MOLECULE
*****
 35 39 0 0 0
SMALL
GASTEIGER

@<TRIPOS>ATOM
      1 C          63.6099   90.0001   15.6669 C.ar    1  UNL1        0.1983
      2 N          63.4188   89.2373   16.9442 N.ar    1  UNL1       -0.2122
      3 C          63.2758   87.7845   16.5996 C.ar    1  UNL1        0.1190
      4 C          63.0653   86.5671   17.4502 C.ar    1  UNL1        0.1194
      5 N          62.9575   85.2147   16.8106 N.ar    1  UNL1       -0.2422
      6 C          63.0602   85.0796   15.3202 C.ar    1  UNL1        0.0830
      7 C          62.9524   83.7270   14.6805 C.ar    1  UNL1        0.0223
      8 C          63.0551   83.5919   13.1902 C.ar    1  UNL1        0.0394
      9 C          63.2656   84.8094   12.3395 C.ar    1  UNL1        0.1389
     10 C          63.3734   86.1618   12.9791 C.ar    1  UNL1        0.0399
     11 C          63.2707   86.2969   14.4695 C.ar    1  UNL1        0.0381
     12 C          63.3785   87.6494   15.1092 C.ar    1  UNL1        0.0832
     13 N          63.5850   89.0187   14.5328 N.ar    1  UNL1       -0.2939
     14 C          62.9473   82.2395   12.5505 C.ar    1  UNL1        0.0526
     15 C          62.0779   81.1100   13.0176 C.ar    1  UNL1        0.1007
     16 C          61.1635   81.1346   14.2064 C.3     1  UNL1        0.0557
     17 N          62.2833   79.9515   12.0872 N.ar    1  UNL1       -0.0817
     18 O          63.2797   80.3651   11.0450 O.2     1  UNL1       -0.3581
     19 C          63.6901   81.7791   11.3314 C.ar    1  UNL1        0.1545
     20 C          64.6711   82.5903   10.5379 C.3     1  UNL1        0.0754
     21 N          63.7937   91.4839   15.5451 N.pl3   1  UNL1       -0.3019
     22 H          63.0400   92.0518   15.2645 H       1  UNL1        0.1497
     23 C          65.1256   92.1022   15.8507 C.3     1  UNL1        0.1217
     24 C          66.0884   92.3971   14.7389 C.3     1  UNL1        0.1634
     25 C          66.2962   93.9232   12.6465 C.3     1  UNL1        0.1742
     26 O          66.1336   93.7670   14.1295 O.3     1  UNL1       -0.3493
     27 O          63.3683   84.6743   10.8491 O.3     1  UNL1       -0.4714
     28 C          62.4765   85.4881    9.9590 C.3     1  UNL1        0.2525
     29 C          63.7394   89.3487   13.0777 C.3     1  UNL1        0.1544
     30 C          62.5253   89.4976   12.2094 C.ar    1  UNL1        0.0819
     31 C          62.6607   89.4504   10.7163 C.ar    1  UNL1        0.0167
     32 C          61.4466   89.5993    9.8481 C.ar    1  UNL1        0.0029
     33 C          60.0972   89.7955   10.4730 C.ar    1  UNL1        0.0207
     34 C          59.9618   89.8427   11.9661 C.ar    1  UNL1        0.0985
     35 N          61.1759   89.6938   12.8343 N.ar    1  UNL1       -0.2462
@<TRIPOS>BOND
     1    25    26    1
     2    26    24    1
     3    24    23    1
     4    23    21    1
     5    21     1    1
     6     1     2   ar
     7     2     3   ar
     8     3     4   ar
     9     4     5   ar
    10     5     6   ar
    11     6     7   ar
    12     7     8   ar
    13     8    14    1
    14    14    15   ar
    15    15    16    1
    16    15    17   ar
    17    17    18   ar
    18    18    19   ar
    19    19    20    1
    20     8     9   ar
    21     9    27    1
    22    27    28    1
    23     9    10   ar
    24    10    11   ar
    25    11    12   ar
    26    12    13   ar
    27    13    29    1
    28    29    30    1
    29    30    31   ar
    30    31    32   ar
    31    32    33   ar
    32    33    34   ar
    33    34    35   ar
    34    13     1   ar
    35    35    30   ar
    36    12     3   ar
    37    11     6   ar
    38    19    14   ar
    39    21    22    1
@<TRIPOS>MOLECULE
*****
 35 39 0 0 0
SMALL
GASTEIGER

@<TRIPOS>ATOM
      1 C          60.6861   87.7876    9.5365 C.ar    1  UNL1        0.1983
      2 N          60.9569   89.0317    8.7437 N.ar    1  UNL1       -0.2122
      3 C          61.8972   89.8909    9.5360 C.ar    1  UNL1        0.1190
      4 C          62.5110   91.2304    9.2552 C.ar    1  UNL1        0.1194
      5 N          63.4350   91.8568   10.2571 N.ar    1  UNL1       -0.2422
      6 C          63.7453   91.1436   11.5397 C.ar    1  UNL1        0.0830
      7 C          64.6694   91.7700   12.5416 C.ar    1  UNL1        0.0223
      8 C          64.9797   91.0568   13.8242 C.ar    1  UNL1        0.0394
      9 C          64.3659   89.7172   14.1049 C.ar    1  UNL1        0.1389
     10 C          63.4419   89.0908   13.1030 C.ar    1  UNL1        0.0399
     11 C          63.1316   89.8040   11.8204 C.ar    1  UNL1        0.0381
     12 C          62.2075   89.1777   10.8186 C.ar    1  UNL1        0.0832
     13 N          61.4590   87.8778   10.8189 N.ar    1  UNL1       -0.2939
     14 C          65.9038   91.6832   14.8260 C.ar    1  UNL1        0.0526
     15 C          65.5205   92.1817   16.1879 C.ar    1  UNL1        0.1007
     16 C          64.1460   92.1415   16.7869 C.3     1  UNL1        0.0557
     17 N          66.7532   92.7276   16.8455 N.ar    1  UNL1       -0.0817
     18 O          67.8983   92.5664   15.8900 O.2     1  UNL1       -0.3581
     19 C          67.3733   91.9209   14.6420 C.ar    1  UNL1        0.1545
     20 C          68.1768   91.5741   13.4238 C.3     1  UNL1        0.0754
     21 N          59.7982   86.6525    9.1202 N.pl3   1  UNL1       -0.3019
     22 H          59.6889   85.8714    9.7094 H       1  UNL1        0.1497
     23 C          59.0769   86.7076    7.8062 C.3     1  UNL1        0.1217
     24 C          58.5854   88.0214    7.2749 C.3     1  UNL1        0.1634
     25 C          59.0078   90.1717    5.8791 C.3     1  UNL1        0.1742
     26 O          59.4077   88.7818    6.2771 O.3     1  UNL1       -0.3493
     27 O          64.6762   89.0040   15.3875 O.3     1  UNL1       -0.4714
     28 C          63.5604   88.5179   16.2642 C.3     1  UNL1        0.2525
     29 C          61.4797   86.8488   11.9101 C.3     1  UNL1        0.1544
     30 C          62.4188   85.6822   11.8232 C.ar    1  UNL1        0.0819
     31 C          62.6371   84.9914   10.5097 C.ar    1  UNL1        0.0167
     32 C          63.5761   83.8250   10.4228 C.ar    1  UNL1        0.0029
     33 C          64.2968   83.3493   11.6493 C.ar    1  UNL1        0.0207
     34 C          64.0785   84.0400   12.9628 C.ar    1  UNL1        0.0985
     35 N          63.1395   85.2065   13.0497 N.ar    1  UNL1       -0.2462
@<TRIPOS>BOND
     1    25    26    1
     2    26    24    1
     3    24    23    1
     4    23    21    1
     5    21     1    1
     6     1     2   ar
     7     2     3   ar
     8     3     4   ar
     9     4     5   ar
    10     5     6   ar
    11     6     7   ar
    12     7     8   ar
    13     8    14    1
    14    14    15   ar
    15    15    16    1
    16    15    17   ar
    17    17    18   ar
    18    18    19   ar
    19    19    20    1
    20     8     9   ar
    21     9    27    1
    22    27    28    1
    23     9    10   ar
    24    10    11   ar
    25    11    12   ar
    26    12    13   ar
    27    13    29    1
    28    29    30    1
    29    30    31   ar
    30    31    32   ar
    31    32    33   ar
    32    33    34   ar
    33    34    35   ar
    34    13     1   ar
    35    35    30   ar
    36    12     3   ar
    37    11     6   ar
    38    19    14   ar
    39    21    22    1
@<TRIPOS>MOLECULE
*****
 35 39 0 0 0
SMALL
GASTEIGER

@<TRIPOS>ATOM
      1 C          64.7265   92.7808   11.4408 C.ar    1  UNL1        0.1983
      2 N          65.4427   92.9138   12.7520 N.ar    1  UNL1       -0.2122
      3 C          65.3030   91.6156   13.4904 C.ar    1  UNL1        0.1190
      4 C          65.8030   91.1645   14.8307 C.ar    1  UNL1        0.1194
      5 N          65.5002   89.7779   15.3161 N.ar    1  UNL1       -0.2422
      6 C          64.6976   88.8425   14.4613 C.ar    1  UNL1        0.0830
      7 C          64.3949   87.4558   14.9468 C.ar    1  UNL1        0.0223
      8 C          63.5922   86.5204   14.0919 C.ar    1  UNL1        0.0394
      9 C          63.0923   86.9717   12.7516 C.ar    1  UNL1        0.1389
     10 C          63.3950   88.3582   12.2661 C.ar    1  UNL1        0.0399
     11 C          64.1976   89.2936   13.1210 C.ar    1  UNL1        0.0381
     12 C          64.5004   90.6802   12.6355 C.ar    1  UNL1        0.0832
     13 N          64.1440   91.4003   11.3688 N.ar    1  UNL1       -0.2939
     14 C          63.2895   85.1338   14.5774 C.ar    1  UNL1        0.0526
     15 C          63.7017   83.8559   13.9088 C.ar    1  UNL1        0.1007
     16 C          64.4891   83.7403   12.6373 C.3     1  UNL1        0.0557
     17 N          63.1884   82.7140   14.7348 N.ar    1  UNL1       -0.0817
     18 O          62.4589   83.2862   15.9141 O.2     1  UNL1       -0.3581
     19 C          62.5214   84.7817   15.8167 C.ar    1  UNL1        0.1545
     20 C          61.9211   85.7543   16.7882 C.3     1  UNL1        0.0754
     21 N          64.6126   93.8418   10.3866 N.pl3   1  UNL1       -0.3019
     22 H          63.9371   93.7585    9.6753 H       1  UNL1        0.1497
     23 C          65.5278   95.0298   10.4164 C.3     1  UNL1        0.1217
     24 C          66.8528   94.9736    9.7155 C.3     1  UNL1        0.1634
     25 C          68.1347   92.7381    9.3841 C.3     1  UNL1        0.1742
     26 O          67.8984   93.9966   10.1654 O.3     1  UNL1       -0.3493
     27 O          62.2896   86.0363   11.8967 O.3     1  UNL1       -0.4714
     28 C          62.6094   85.8919   10.4384 C.3     1  UNL1        0.2525
     29 C          63.3455   90.8386   10.2301 C.3     1  UNL1        0.1544
     30 C          62.0003   90.2265   10.4874 C.ar    1  UNL1        0.0819
     31 C          61.4862   89.1407    9.5891 C.ar    1  UNL1        0.0167
     32 C          60.1411   88.5288    9.8465 C.ar    1  UNL1        0.0029
     33 C          59.3102   89.0025   11.0019 C.ar    1  UNL1        0.0207
     34 C          59.8243   90.0883   11.9001 C.ar    1  UNL1        0.0985
     35 N          61.1694   90.7003   11.6428 N.ar    1  UNL1       -0.2462
@<TRIPOS>BOND
     1    25    26    1
     2    26    24    1
     3    24    23    1
     4    23    21    1
     5    21     1    1
     6     1     2   ar
     7     2     3   ar
     8     3     4   ar
     9     4     5   ar
    10     5     6   ar
    11     6     7   ar
    12     7     8   ar
    13     8    14    1
    14    14    15   ar
    15    15    16    1
    16    15    17   ar
    17    17    18   ar
    18    18    19   ar
    19    19    20    1
    20     8     9   ar
    21     9    27    1
    22    27    28    1
    23     9    10   ar
    24    10    11   ar
    25    11    12   ar
    26    12    13   ar
    27    13    29    1
    28    29    30    1
    29    30    31   ar
    30    31    32   ar
    31    32    33   ar
    32    33    34   ar
    33    34    35   ar
    34    13     1   ar
    35    35    30   ar
    36    12     3   ar
    37    11     6   ar
    38    19    14   ar
    39    21    22    1
@<TRIPOS>MOLECULE
*****
 35 39 0 0 0
SMALL
GASTEIGER

@<TRIPOS>ATOM
      1 C          62.0093   85.2406   10.6966 C.ar    1  UNL1        0.1983
      2 N          62.6156   84.4086   11.7875 N.ar    1  UNL1       -0.2122
      3 C          63.3033   85.3331   12.7478 C.ar    1  UNL1        0.1190
      4 C          64.0712   85.0784   14.0109 C.ar    1  UNL1        0.1194
      5 N          64.6578   86.2271   14.7766 N.ar    1  UNL1       -0.2422
      6 C          64.4764   87.6306   14.2792 C.ar    1  UNL1        0.0830
      7 C          65.0630   88.7793   15.0450 C.ar    1  UNL1        0.0223
      8 C          64.8817   90.1828   14.5477 C.ar    1  UNL1        0.0394
      9 C          64.1138   90.4375   13.2845 C.ar    1  UNL1        0.1389
     10 C          63.5272   89.2888   12.5188 C.ar    1  UNL1        0.0399
     11 C          63.7086   87.8853   13.0162 C.ar    1  UNL1        0.0381
     12 C          63.1220   86.7366   12.2505 C.ar    1  UNL1        0.0832
     13 N          62.3222   86.6794   10.9827 N.ar    1  UNL1       -0.2939
     14 C          65.4682   91.3315   15.3134 C.ar    1  UNL1        0.0526
     15 C          66.7876   91.9910   15.0406 C.ar    1  UNL1        0.1007
     16 C          67.7521   91.6175   13.9542 C.3     1  UNL1        0.0557
     17 N          66.9732   93.0895   16.0450 N.ar    1  UNL1       -0.0817
     18 O          65.7685   93.1090   16.9385 O.2     1  UNL1       -0.3581
     19 C          64.8384   92.0225   16.4863 C.ar    1  UNL1        0.1545
     20 C          63.5115   91.6861   17.0995 C.3     1  UNL1        0.0754
     21 N          61.2273   84.7245    9.5252 N.pl3   1  UNL1       -0.3019
     22 H          60.6418   83.9401    9.6313 H       1  UNL1        0.1497
     23 C          61.3372   85.4034    8.1922 C.3     1  UNL1        0.1217
     24 C          60.0983   85.8441    7.4705 C.3     1  UNL1        0.1634
     25 C          59.1993   88.2813    7.5160 C.3     1  UNL1        0.1742
     26 O          59.2095   86.8898    8.0761 O.3     1  UNL1       -0.3493
     27 O          63.9324   91.8410   12.7872 O.3     1  UNL1       -0.4714
     28 C          64.8015   92.3631   11.6817 C.3     1  UNL1        0.2525
     29 C          61.9081   87.8547   10.1478 C.3     1  UNL1        0.1544
     30 C          60.8978   88.8303   10.6747 C.ar    1  UNL1        0.0819
     31 C          60.9125   90.2539   10.2023 C.ar    1  UNL1        0.0167
     32 C          59.9023   91.2294   10.7292 C.ar    1  UNL1        0.0029
     33 C          58.8773   90.7814   11.7285 C.ar    1  UNL1        0.0207
     34 C          58.8625   89.3578   12.2009 C.ar    1  UNL1        0.0985
     35 N          59.8728   88.3823   11.6740 N.ar    1  UNL1       -0.2462
@<TRIPOS>BOND
     1    25    26    1
     2    26    24    1
     3    24    23    1
     4    23    21    1
     5    21     1    1
     6     1     2   ar
     7     2     3   ar
     8     3     4   ar
     9     4     5   ar
    10     5     6   ar
    11     6     7   ar
    12     7     8   ar
    13     8    14    1
    14    14    15   ar
    15    15    16    1
    16    15    17   ar
    17    17    18   ar
    18    18    19   ar
    19    19    20    1
    20     8     9   ar
    21     9    27    1
    22    27    28    1
    23     9    10   ar
    24    10    11   ar
    25    11    12   ar
    26    12    13   ar
    27    13    29    1
    28    29    30    1
    29    30    31   ar
    30    31    32   ar
    31    32    33   ar
    32    33    34   ar
    33    34    35   ar
    34    13     1   ar
    35    35    30   ar
    36    12     3   ar
    37    11     6   ar
    38    19    14   ar
    39    21    22    1
@<TRIPOS>MOLECULE
*****
 35 39 0 0 0
SMALL
GASTEIGER

@<TRIPOS>ATOM
      1 C          57.6688   95.4342   -2.8441 C.ar    1  UNL1        0.1983
      2 N          57.2039   95.0896   -4.2280 N.ar    1  UNL1       -0.2122
      3 C          58.4161   94.8389   -5.0752 C.ar    1  UNL1        0.1190
      4 C          58.5712   94.4624   -6.5188 C.ar    1  UNL1        0.1194
      5 N          59.9404   94.2757   -7.1022 N.ar    1  UNL1       -0.2422
      6 C          61.1545   94.4655   -6.2420 C.ar    1  UNL1        0.0830
      7 C          62.5237   94.2787   -6.8254 C.ar    1  UNL1        0.0223
      8 C          63.7378   94.4685   -5.9652 C.ar    1  UNL1        0.0394
      9 C          63.5826   94.8450   -4.5215 C.ar    1  UNL1        0.1389
     10 C          62.2134   95.0317   -3.9381 C.ar    1  UNL1        0.0399
     11 C          60.9993   94.8420   -4.7983 C.ar    1  UNL1        0.0381
     12 C          59.6302   95.0287   -4.2149 C.ar    1  UNL1        0.0832
     13 N          59.1683   95.3966   -2.8361 N.ar    1  UNL1       -0.2939
     14 C          65.1070   94.2818   -6.5486 C.ar    1  UNL1        0.0526
     15 C          66.0581   95.3760   -6.9336 C.ar    1  UNL1        0.1007
     16 C          65.8069   96.8490   -6.8028 C.3     1  UNL1        0.0557
     17 N          67.3044   94.7385   -7.4723 N.ar    1  UNL1       -0.0817
     18 O          67.1236   93.2503   -7.4203 O.2     1  UNL1       -0.3581
     19 C          65.7655   92.9681   -6.8493 C.ar    1  UNL1        0.1545
     20 C          65.1705   91.6105   -6.6196 C.3     1  UNL1        0.0754
     21 N          56.7887   95.7594   -1.6737 N.pl3   1  UNL1       -0.3019
     22 H          57.1773   96.1560   -0.8608 H       1  UNL1        0.1497
     23 C          55.3165   95.4804   -1.7421 C.3     1  UNL1        0.1217
     24 C          54.8250   94.0669   -1.8447 C.3     1  UNL1        0.1634
     25 C          56.1462   91.9160   -2.4594 C.3     1  UNL1        0.1742
     26 O          55.7181   92.9312   -1.4415 O.3     1  UNL1       -0.3493
     27 O          64.7967   95.0348   -3.6612 O.3     1  UNL1       -0.4714
     28 C          64.6422   95.4309   -2.2228 C.3     1  UNL1        0.2525
     29 C          60.0510   95.6776   -1.6563 C.3     1  UNL1        0.1544
     30 C          60.5608   94.5454   -0.8145 C.ar    1  UNL1        0.0819
     31 C          61.7461   94.7515    0.0814 C.ar    1  UNL1        0.0167
     32 C          62.2558   93.6194    0.9230 C.ar    1  UNL1        0.0029
     33 C          61.5803   92.2813    0.8689 C.ar    1  UNL1        0.0207
     34 C          60.3950   92.0751   -0.0270 C.ar    1  UNL1        0.0985
     35 N          59.8853   93.2072   -0.8686 N.ar    1  UNL1       -0.2462
@<TRIPOS>BOND
     1    25    26    1
     2    26    24    1
     3    24    23    1
     4    23    21    1
     5    21     1    1
     6     1     2   ar
     7     2     3   ar
     8     3     4   ar
     9     4     5   ar
    10     5     6   ar
    11     6     7   ar
    12     7     8   ar
    13     8    14    1
    14    14    15   ar
    15    15    16    1
    16    15    17   ar
    17    17    18   ar
    18    18    19   ar
    19    19    20    1
    20     8     9   ar
    21     9    27    1
    22    27    28    1
    23     9    10   ar
    24    10    11   ar
    25    11    12   ar
    26    12    13   ar
    27    13    29    1
    28    29    30    1
    29    30    31   ar
    30    31    32   ar
    31    32    33   ar
    32    33    34   ar
    33    34    35   ar
    34    13     1   ar
    35    35    30   ar
    36    12     3   ar
    37    11     6   ar
    38    19    14   ar
    39    21    22    1
@<TRIPOS>MOLECULE
*****
 35 39 0 0 0
SMALL
GASTEIGER

@<TRIPOS>ATOM
      1 C          65.6503   92.2903   14.3339 C.ar    1  UNL1        0.1983
      2 N          65.6721   91.0625   15.1952 N.ar    1  UNL1       -0.2122
      3 C          64.9279   89.9775   14.4748 C.ar    1  UNL1        0.1190
      4 C          64.6267   88.5541   14.8397 C.ar    1  UNL1        0.1194
      5 N          63.8438   87.6880   13.8980 N.ar    1  UNL1       -0.2422
      6 C          63.3620   88.2453   12.5913 C.ar    1  UNL1        0.0830
      7 C          62.5791   87.3792   11.6496 C.ar    1  UNL1        0.0223
      8 C          62.0973   87.9365   10.3430 C.ar    1  UNL1        0.0394
      9 C          62.3986   89.3599    9.9780 C.ar    1  UNL1        0.1389
     10 C          63.1815   90.2260   10.9197 C.ar    1  UNL1        0.0399
     11 C          63.6632   89.6687   12.2264 C.ar    1  UNL1        0.0381
     12 C          64.4462   90.5348   13.1681 C.ar    1  UNL1        0.0832
     13 N          64.8926   91.9642   13.0810 N.ar    1  UNL1       -0.2939
     14 C          61.3144   87.0704    9.4012 C.ar    1  UNL1        0.0526
     15 C          59.8305   87.1177    9.1870 C.ar    1  UNL1        0.1007
     16 C          58.8691   88.0395    9.8769 C.3     1  UNL1        0.0557
     17 N          59.4769   86.0815    8.1618 N.ar    1  UNL1       -0.0817
     18 O          60.7423   85.3937    7.7424 O.2     1  UNL1       -0.3581
     19 C          61.8779   86.0049    8.5084 C.ar    1  UNL1        0.1545
     20 C          63.3232   85.6184    8.4005 C.3     1  UNL1        0.0754
     21 N          66.2762   93.6122   14.6669 N.pl3   1  UNL1       -0.3019
     22 H          65.7419   94.4373   14.6132 H       1  UNL1        0.1497
     23 C          67.7163   93.6769   15.0817 C.3     1  UNL1        0.1217
     24 C          68.5734   92.4480   15.0097 C.3     1  UNL1        0.1634
     25 C          68.9672   91.4957   12.6247 C.3     1  UNL1        0.1742
     26 O          69.4744   92.2300   13.8304 O.3     1  UNL1       -0.3493
     27 O          61.9168   89.9172    8.6714 O.3     1  UNL1       -0.4714
     28 C          60.4703   90.2728    8.4954 C.3     1  UNL1        0.2525
     29 C          64.6279   92.9026   11.9412 C.3     1  UNL1        0.1544
     30 C          65.7562   93.3480   11.0588 C.ar    1  UNL1        0.0819
     31 C          65.9860   94.8103   10.8157 C.ar    1  UNL1        0.0167
     32 C          67.1143   95.2555    9.9333 C.ar    1  UNL1        0.0029
     33 C          68.0128   94.2387    9.2940 C.ar    1  UNL1        0.0207
     34 C          67.7830   92.7764    9.5372 C.ar    1  UNL1        0.0985
     35 N          66.6548   92.3312   10.4195 N.ar    1  UNL1       -0.2462
@<TRIPOS>BOND
     1    25    26    1
     2    26    24    1
     3    24    23    1
     4    23    21    1
     5    21     1    1
     6     1     2   ar
     7     2     3   ar
     8     3     4   ar
     9     4     5   ar
    10     5     6   ar
    11     6     7   ar
    12     7     8   ar
    13     8    14    1
    14    14    15   ar
    15    15    16    1
    16    15    17   ar
    17    17    18   ar
    18    18    19   ar
    19    19    20    1
    20     8     9   ar
    21     9    27    1
    22    27    28    1
    23     9    10   ar
    24    10    11   ar
    25    11    12   ar
    26    12    13   ar
    27    13    29    1
    28    29    30    1
    29    30    31   ar
    30    31    32   ar
    31    32    33   ar
    32    33    34   ar
    33    34    35   ar
    34    13     1   ar
    35    35    30   ar
    36    12     3   ar
    37    11     6   ar
    38    19    14   ar
    39    21    22    1
