@<TRIPOS>MOLECULE
*****
 25 27 0 0 0
SMALL
GASTEIGER

@<TRIPOS>ATOM
      1 C          63.4549   87.1534   12.9383 C.2     1  UNL1       -0.0245
      2 C          63.5943   88.6441   13.0288 C.2     1  UNL1       -0.0421
      3 C          62.8678   89.2491   11.8642 C.3     1  UNL1        0.0480
      4 C          62.2795   88.1322   11.0540 C.ar    1  UNL1       -0.0187
      5 C          61.4602   88.1273    9.7975 C.ar    1  UNL1       -0.0082
      6 C          61.0038   86.8271    9.2049 C.ar    1  UNL1       -0.0222
      7 C          60.1845   86.8222    7.9483 C.3     1  UNL1        0.0310
      8 C          61.3667   85.5319    9.8687 C.ar    1  UNL1       -0.0043
      9 C          62.1859   85.5368   11.1252 C.ar    1  UNL1       -0.0009
     10 C          62.6423   86.8370   11.7178 C.ar    1  UNL1       -0.0079
     11 C          64.0276   86.1543   13.8995 C.3     1  UNL1        0.0666
     12 C          64.9553   86.6072   14.9879 C.3     1  UNL1        0.0112
     13 C          62.5378   84.1350   14.5724 C.ar    1  UNL1        0.2393
     14 N          62.1830   82.6831   14.4454 N.ar    1  UNL1       -0.2075
     15 C          62.9631   81.7987   13.5184 C.ar    1  UNL1        0.1227
     16 C          64.0980   82.3662   12.7184 C.ar    1  UNL1        0.1193
     17 N          64.4528   83.8181   12.8455 N.ar    1  UNL1       -0.2415
     18 C          63.6728   84.7025   13.7725 C.ar    1  UNL1        0.1156
     19 C          62.3148   85.3700   16.8473 C.3     1  UNL1        0.2543
     20 O          61.7577   85.0193   15.4995 O.3     1  UNL1       -0.4553
     21 C          64.3308   89.3976   14.0964 C.3     1  UNL1        0.0394
     22 C          64.0584   90.8574   14.3078 C.3     1  UNL1        0.0765
     23 N          65.1269   91.8695   14.0180 N.3     1  UNL1       -0.2700
     24 C          65.9978   92.3794   15.1279 C.3     1  UNL1        0.0897
     25 C          65.3247   92.3715   12.6185 C.3     1  UNL1        0.0897
@<TRIPOS>BOND
     1    19    20    1
     2    20    13    1
     3    13    14   ar
     4    14    15   ar
     5    15    16   ar
     6    16    17   ar
     7    17    18   ar
     8    18    11    1
     9    11    12    1
    10    11     1    1
    11     1     2    2
    12     2    21    1
    13    21    22    1
    14    22    23    1
    15    23    24    1
    16    23    25    1
    17     2     3    1
    18     3     4    1
    19     4     5   ar
    20     5     6   ar
    21     6     7    1
    22     6     8   ar
    23     8     9   ar
    24     9    10   ar
    25    18    13   ar
    26    10     1    1
    27    10     4   ar
@<TRIPOS>MOLECULE
*****
 25 27 0 0 0
SMALL
GASTEIGER

@<TRIPOS>ATOM
      1 C          62.8184   86.8532   12.0010 C.2     1  UNL1       -0.0245
      2 C          63.5513   87.5501   13.1089 C.2     1  UNL1       -0.0421
      3 C          64.1212   86.5023   14.0184 C.3     1  UNL1        0.0480
      4 C          63.7405   85.1579   13.4728 C.ar    1  UNL1       -0.0187
      5 C          64.0231   83.7643   13.9502 C.ar    1  UNL1       -0.0082
      6 C          63.5004   82.5876   13.1807 C.ar    1  UNL1       -0.0222
      7 C          63.7829   81.1939   13.6581 C.3     1  UNL1        0.0310
      8 C          62.6953   82.8045   11.9338 C.ar    1  UNL1       -0.0043
      9 C          62.4128   84.1981   11.4564 C.ar    1  UNL1       -0.0009
     10 C          62.9354   85.3748   12.2259 C.ar    1  UNL1       -0.0079
     11 C          62.0955   87.5181   10.8673 C.3     1  UNL1        0.0666
     12 C          62.4034   87.1304    9.4512 C.3     1  UNL1        0.0112
     13 C          61.2523   89.9636   10.6257 C.ar    1  UNL1        0.2393
     14 N          60.2215   91.0161   10.9078 N.ar    1  UNL1       -0.2075
     15 C          59.0030   90.6756   11.7137 C.ar    1  UNL1        0.1227
     16 C          58.8154   89.2826   12.2374 C.ar    1  UNL1        0.1193
     17 N          59.8462   88.2301   11.9552 N.ar    1  UNL1       -0.2415
     18 C          61.0648   88.5706   11.1494 C.ar    1  UNL1        0.1156
     19 C          63.3834   91.4064   10.2696 C.3     1  UNL1        0.2543
     20 O          62.4708   90.3042    9.8199 O.3     1  UNL1       -0.4553
     21 C          63.6899   89.0341   13.2775 C.3     1  UNL1        0.0394
     22 C          64.5506   89.5871   14.3744 C.3     1  UNL1        0.0765
     23 N          63.9213   90.0950   15.6378 N.3     1  UNL1       -0.2700
     24 C          63.0673   89.1841   16.4690 C.3     1  UNL1        0.0897
     25 C          64.1459   91.5137   16.0698 C.3     1  UNL1        0.0897
@<TRIPOS>BOND
     1    19    20    1
     2    20    13    1
     3    13    14   ar
     4    14    15   ar
     5    15    16   ar
     6    16    17   ar
     7    17    18   ar
     8    18    11    1
     9    11    12    1
    10    11     1    1
    11     1     2    2
    12     2    21    1
    13    21    22    1
    14    22    23    1
    15    23    24    1
    16    23    25    1
    17     2     3    1
    18     3     4    1
    19     4     5   ar
    20     5     6   ar
    21     6     7    1
    22     6     8   ar
    23     8     9   ar
    24     9    10   ar
    25    18    13   ar
    26    10     1    1
    27    10     4   ar
@<TRIPOS>MOLECULE
*****
 25 27 0 0 0
SMALL
GASTEIGER

@<TRIPOS>ATOM
      1 C          63.5035   89.2253   12.9687 C.2     1  UNL1       -0.0245
      2 C          63.7748   87.8244   13.4310 C.2     1  UNL1       -0.0421
      3 C          63.0701   86.8841   12.4987 C.3     1  UNL1        0.0480
      4 C          62.3631   87.7038   11.4604 C.ar    1  UNL1       -0.0187
      5 C          61.5101   87.3196   10.2879 C.ar    1  UNL1       -0.0082
      6 C          60.9250   88.3824    9.4059 C.ar    1  UNL1       -0.0222
      7 C          60.0720   87.9982    8.2333 C.3     1  UNL1        0.0310
      8 C          61.1929   89.8295    9.6963 C.ar    1  UNL1       -0.0043
      9 C          62.0459   90.2137   10.8688 C.ar    1  UNL1       -0.0009
     10 C          62.6310   89.1508   11.7508 C.ar    1  UNL1       -0.0079
     11 C          64.0148   90.4805   13.6115 C.3     1  UNL1        0.0666
     12 C          63.6291   90.8111   15.0229 C.3     1  UNL1        0.0112
     13 C          66.2613   91.7663   13.3888 C.ar    1  UNL1        0.2393
     14 N          67.1582   92.6909   12.6203 N.ar    1  UNL1       -0.2075
     15 C          66.7056   93.2542   11.3058 C.ar    1  UNL1        0.1227
     16 C          65.3559   92.8930   10.7599 C.ar    1  UNL1        0.1193
     17 N          64.4590   91.9684   11.5285 N.ar    1  UNL1       -0.2415
     18 C          64.9117   91.4050   12.8430 C.ar    1  UNL1        0.1156
     19 C          67.7198   91.9465   15.5313 C.3     1  UNL1        0.2543
     20 O          66.7141   91.2031   14.7033 O.3     1  UNL1       -0.4553
     21 C          64.6052   87.4326   14.6172 C.3     1  UNL1        0.0394
     22 C          64.5193   86.0391   15.1654 C.3     1  UNL1        0.0765
     23 N          63.2971   85.6032   15.9180 N.3     1  UNL1       -0.2700
     24 C          62.8894   86.3245   17.1685 C.3     1  UNL1        0.0897
     25 C          62.4827   84.4461   15.4203 C.3     1  UNL1        0.0897
@<TRIPOS>BOND
     1    19    20    1
     2    20    13    1
     3    13    14   ar
     4    14    15   ar
     5    15    16   ar
     6    16    17   ar
     7    17    18   ar
     8    18    11    1
     9    11    12    1
    10    11     1    1
    11     1     2    2
    12     2    21    1
    13    21    22    1
    14    22    23    1
    15    23    24    1
    16    23    25    1
    17     2     3    1
    18     3     4    1
    19     4     5   ar
    20     5     6   ar
    21     6     7    1
    22     6     8   ar
    23     8     9   ar
    24     9    10   ar
    25    18    13   ar
    26    10     1    1
    27    10     4   ar
@<TRIPOS>MOLECULE
*****
 25 27 0 0 0
SMALL
GASTEIGER

@<TRIPOS>ATOM
      1 C          63.5359   86.2107   13.1858 C.2     1  UNL1       -0.0245
      2 C          63.2098   84.7783   12.8830 C.2     1  UNL1       -0.0421
      3 C          62.3298   84.7501   11.6686 C.3     1  UNL1        0.0480
      4 C          62.1120   86.1650   11.2209 C.ar    1  UNL1       -0.0187
      5 C          61.3313   86.7481   10.0805 C.ar    1  UNL1       -0.0082
      6 C          61.2960   88.2339    9.8779 C.ar    1  UNL1       -0.0222
      7 C          60.5152   88.8170    8.7375 C.3     1  UNL1        0.0310
      8 C          62.0414   89.1366   10.8156 C.ar    1  UNL1       -0.0043
      9 C          62.8222   88.5536   11.9559 C.ar    1  UNL1       -0.0009
     10 C          62.8575   87.0678   12.1586 C.ar    1  UNL1       -0.0079
     11 C          64.3905   86.7002   14.3172 C.3     1  UNL1        0.0666
     12 C          65.4977   85.8385   14.8482 C.3     1  UNL1        0.0112
     13 C          63.2433   88.1850   16.1142 C.ar    1  UNL1        0.2393
     14 N          62.9908   89.5362   16.7147 N.ar    1  UNL1       -0.2075
     15 C          63.6331   90.7537   16.1188 C.ar    1  UNL1        0.1227
     16 C          64.5279   90.6201   14.9223 C.ar    1  UNL1        0.1193
     17 N          64.7804   89.2689   14.3218 N.ar    1  UNL1       -0.2415
     18 C          64.1380   88.0513   14.9178 C.ar    1  UNL1        0.1156
     19 C          62.7269   86.6966   18.1801 C.3     1  UNL1        0.2543
     20 O          62.6009   86.9676   16.7102 O.3     1  UNL1       -0.4553
     21 C          63.6810   83.5838   13.6584 C.3     1  UNL1        0.0394
     22 C          62.6874   82.7034   14.3567 C.3     1  UNL1        0.0765
     23 N          62.1243   81.5038   13.6540 N.3     1  UNL1       -0.2700
     24 C          60.8464   80.8835   14.1361 C.3     1  UNL1        0.0897
     25 C          62.8389   80.9245   12.4692 C.3     1  UNL1        0.0897
@<TRIPOS>BOND
     1    19    20    1
     2    20    13    1
     3    13    14   ar
     4    14    15   ar
     5    15    16   ar
     6    16    17   ar
     7    17    18   ar
     8    18    11    1
     9    11    12    1
    10    11     1    1
    11     1     2    2
    12     2    21    1
    13    21    22    1
    14    22    23    1
    15    23    24    1
    16    23    25    1
    17     2     3    1
    18     3     4    1
    19     4     5   ar
    20     5     6   ar
    21     6     7    1
    22     6     8   ar
    23     8     9   ar
    24     9    10   ar
    25    18    13   ar
    26    10     1    1
    27    10     4   ar
@<TRIPOS>MOLECULE
*****
 25 27 0 0 0
SMALL
GASTEIGER

@<TRIPOS>ATOM
      1 C          63.3799   88.6312   12.5852 C.2     1  UNL1       -0.0245
      2 C          63.9748   89.4650   13.6811 C.2     1  UNL1       -0.0421
      3 C          64.4332   88.5406   14.7699 C.3     1  UNL1        0.0480
      4 C          64.1216   87.1356   14.3469 C.ar    1  UNL1       -0.0187
      5 C          64.3466   85.8125   15.0168 C.ar    1  UNL1       -0.0082
      6 C          63.9206   84.5454   14.3365 C.ar    1  UNL1       -0.0222
      7 C          64.1455   83.2223   15.0064 C.3     1  UNL1        0.0310
      8 C          63.2696   84.6014   12.9863 C.ar    1  UNL1       -0.0043
      9 C          63.0446   85.9245   12.3164 C.ar    1  UNL1       -0.0009
     10 C          63.4706   87.1916   12.9967 C.ar    1  UNL1       -0.0079
     11 C          62.7967   89.1465   11.3029 C.3     1  UNL1        0.0666
     12 C          63.1103   90.5394   10.8427 C.3     1  UNL1        0.0112
     13 C          60.4260   88.2345   10.7571 C.ar    1  UNL1        0.2393
     14 N          59.5292   87.3571    9.9349 N.ar    1  UNL1       -0.2075
     15 C          60.1063   86.5143    8.8365 C.ar    1  UNL1        0.1227
     16 C          61.5802   86.5489    8.5602 C.ar    1  UNL1        0.1193
     17 N          62.4770   87.4263    9.3823 N.ar    1  UNL1       -0.2415
     18 C          61.8999   88.2692   10.4808 C.ar    1  UNL1        0.1156
     19 C          59.3693   90.4677   11.5609 C.3     1  UNL1        0.2543
     20 O          59.8488   89.0773   11.8555 O.3     1  UNL1       -0.4553
     21 C          64.0908   90.9604   13.6871 C.3     1  UNL1        0.0394
     22 C          65.3052   91.6161   14.2747 C.3     1  UNL1        0.0765
     23 N          65.9112   92.8122   13.6023 N.3     1  UNL1       -0.2700
     24 C          65.6463   93.0697   12.1484 C.3     1  UNL1        0.0897
     25 C          66.7821   93.7508   14.3836 C.3     1  UNL1        0.0897
@<TRIPOS>BOND
     1    19    20    1
     2    20    13    1
     3    13    14   ar
     4    14    15   ar
     5    15    16   ar
     6    16    17   ar
     7    17    18   ar
     8    18    11    1
     9    11    12    1
    10    11     1    1
    11     1     2    2
    12     2    21    1
    13    21    22    1
    14    22    23    1
    15    23    24    1
    16    23    25    1
    17     2     3    1
    18     3     4    1
    19     4     5   ar
    20     5     6   ar
    21     6     7    1
    22     6     8   ar
    23     8     9   ar
    24     9    10   ar
    25    18    13   ar
    26    10     1    1
    27    10     4   ar
@<TRIPOS>MOLECULE
*****
 25 27 0 0 0
SMALL
GASTEIGER

@<TRIPOS>ATOM
      1 C          63.3134   89.9351   12.7282 C.2     1  UNL1       -0.0245
      2 C          63.9976   89.6712   14.0367 C.2     1  UNL1       -0.0421
      3 C          65.1554   90.6177   14.1535 C.3     1  UNL1        0.0480
      4 C          65.1867   91.4666   12.9172 C.ar    1  UNL1       -0.0187
      5 C          66.1047   92.5693   12.4798 C.ar    1  UNL1       -0.0082
      6 C          65.8843   93.2500   11.1615 C.ar    1  UNL1       -0.0222
      7 C          66.8023   94.3527   10.7240 C.3     1  UNL1        0.0310
      8 C          64.7458   92.8281   10.2806 C.ar    1  UNL1       -0.0043
      9 C          63.8278   91.7254   10.7180 C.ar    1  UNL1       -0.0009
     10 C          64.0482   91.0447   12.0363 C.ar    1  UNL1       -0.0079
     11 C          62.1062   89.2157   12.2037 C.3     1  UNL1        0.0666
     12 C          60.7374   89.7889   12.4227 C.3     1  UNL1        0.0112
     13 C          61.9873   87.8646    9.9877 C.ar    1  UNL1        0.2393
     14 N          62.1487   86.5719    9.2442 N.ar    1  UNL1       -0.2075
     15 C          62.5906   85.3376    9.9730 C.ar    1  UNL1        0.1227
     16 C          62.8711   85.3960   11.4454 C.ar    1  UNL1        0.1193
     17 N          62.7096   86.6887   12.1889 N.ar    1  UNL1       -0.2415
     18 C          62.2677   87.9231   11.4601 C.ar    1  UNL1        0.1156
     19 C          60.1512   89.1887    8.7126 C.3     1  UNL1        0.2543
     20 O          61.5454   89.0989    9.2588 O.3     1  UNL1       -0.4553
     21 C          63.5949   88.6415   15.0504 C.3     1  UNL1        0.0394
     22 C          64.3002   87.3185   15.0966 C.3     1  UNL1        0.0765
     23 N          63.6664   86.1549   15.7997 N.3     1  UNL1       -0.2700
     24 C          63.7086   84.7900   15.1788 C.3     1  UNL1        0.0897
     25 C          62.9905   86.3561   17.1235 C.3     1  UNL1        0.0897
@<TRIPOS>BOND
     1    19    20    1
     2    20    13    1
     3    13    14   ar
     4    14    15   ar
     5    15    16   ar
     6    16    17   ar
     7    17    18   ar
     8    18    11    1
     9    11    12    1
    10    11     1    1
    11     1     2    2
    12     2    21    1
    13    21    22    1
    14    22    23    1
    15    23    24    1
    16    23    25    1
    17     2     3    1
    18     3     4    1
    19     4     5   ar
    20     5     6   ar
    21     6     7    1
    22     6     8   ar
    23     8     9   ar
    24     9    10   ar
    25    18    13   ar
    26    10     1    1
    27    10     4   ar
@<TRIPOS>MOLECULE
*****
 25 27 0 0 0
SMALL
GASTEIGER

@<TRIPOS>ATOM
      1 C          63.6484   85.1778   13.0508 C.2     1  UNL1       -0.0245
      2 C          63.3982   83.7888   12.5429 C.2     1  UNL1       -0.0421
      3 C          62.5615   83.8926   11.3023 C.3     1  UNL1        0.0480
      4 C          62.2946   85.3458   11.0434 C.ar    1  UNL1       -0.0187
      5 C          61.5267   86.0484    9.9634 C.ar    1  UNL1       -0.0082
      6 C          61.4305   87.5453    9.9639 C.ar    1  UNL1       -0.0222
      7 C          60.6625   88.2479    8.8838 C.3     1  UNL1        0.0310
      8 C          62.1023   88.3396   11.0446 C.ar    1  UNL1       -0.0043
      9 C          62.8702   87.6370   12.1247 C.ar    1  UNL1       -0.0009
     10 C          62.9663   86.1401   12.1241 C.ar    1  UNL1       -0.0079
     11 C          64.4414   85.5408   14.2712 C.3     1  UNL1        0.0666
     12 C          65.8999   85.1982   14.3472 C.3     1  UNL1        0.0112
     13 C          63.9065   87.7340   15.5571 C.ar    1  UNL1        0.2393
     14 N          63.2412   88.4396   16.7015 N.ar    1  UNL1       -0.2075
     15 C          62.4457   87.6576   17.7042 C.ar    1  UNL1        0.1227
     16 C          62.3153   86.1700   17.5627 C.ar    1  UNL1        0.1193
     17 N          62.9806   85.4644   16.4183 N.ar    1  UNL1       -0.2415
     18 C          63.7762   86.2464   15.4155 C.ar    1  UNL1        0.1156
     19 C          64.5101   89.9991   14.4368 C.3     1  UNL1        0.2543
     20 O          64.7021   88.5161   14.5544 O.3     1  UNL1       -0.4553
     21 C          63.8971   82.5189   13.1662 C.3     1  UNL1        0.0394
     22 C          63.0394   81.7785   14.1492 C.3     1  UNL1        0.0765
     23 N          62.0656   80.7451   13.6657 N.3     1  UNL1       -0.2700
     24 C          60.6462   80.7672   14.1506 C.3     1  UNL1        0.0897
     25 C          62.5110   79.6898   12.6973 C.3     1  UNL1        0.0897
@<TRIPOS>BOND
     1    19    20    1
     2    20    13    1
     3    13    14   ar
     4    14    15   ar
     5    15    16   ar
     6    16    17   ar
     7    17    18   ar
     8    18    11    1
     9    11    12    1
    10    11     1    1
    11     1     2    2
    12     2    21    1
    13    21    22    1
    14    22    23    1
    15    23    24    1
    16    23    25    1
    17     2     3    1
    18     3     4    1
    19     4     5   ar
    20     5     6   ar
    21     6     7    1
    22     6     8   ar
    23     8     9   ar
    24     9    10   ar
    25    18    13   ar
    26    10     1    1
    27    10     4   ar
@<TRIPOS>MOLECULE
*****
 25 27 0 0 0
SMALL
GASTEIGER

@<TRIPOS>ATOM
      1 C          62.9569   88.7950   11.9614 C.2     1  UNL1       -0.0245
      2 C          63.3316   87.5436   12.6987 C.2     1  UNL1       -0.0421
      3 C          62.6551   86.3877   12.0234 C.3     1  UNL1        0.0480
      4 C          61.8622   86.9246   10.8688 C.ar    1  UNL1       -0.0187
      5 C          60.9945   86.2510    9.8474 C.ar    1  UNL1       -0.0082
      6 C          60.3134   87.0652    8.7877 C.ar    1  UNL1       -0.0222
      7 C          59.4456   86.3916    7.7663 C.3     1  UNL1        0.0310
      8 C          60.5000   88.5531    8.7494 C.ar    1  UNL1       -0.0043
      9 C          61.3677   89.2267    9.7707 C.ar    1  UNL1       -0.0009
     10 C          62.0488   88.4125   10.8305 C.ar    1  UNL1       -0.0079
     11 C          63.4107   90.1850   12.2962 C.3     1  UNL1        0.0666
     12 C          63.6064   91.1938   11.2033 C.3     1  UNL1        0.0112
     13 C          64.8175   91.4694   14.0629 C.ar    1  UNL1        0.2393
     14 N          65.0756   91.8507   15.4905 N.ar    1  UNL1       -0.2075
     15 C          64.1851   91.3289   16.5789 C.ar    1  UNL1        0.1227
     16 C          63.0364   90.4258   16.2398 C.ar    1  UNL1        0.1193
     17 N          62.7783   90.0445   14.8122 N.ar    1  UNL1       -0.2415
     18 C          63.6688   90.5663   13.7237 C.ar    1  UNL1        0.1156
     19 C          66.3306   93.3500   13.1017 C.3     1  UNL1        0.2543
     20 O          65.7081   91.9912   12.9745 O.3     1  UNL1       -0.4553
     21 C          64.2259   87.4625   13.9002 C.3     1  UNL1        0.0394
     22 C          64.4095   86.1547   14.6115 C.3     1  UNL1        0.0765
     23 N          63.3968   85.7014   15.6210 N.3     1  UNL1       -0.2700
     24 C          63.1613   86.5099   16.8623 C.3     1  UNL1        0.0897
     25 C          62.6197   84.4395   15.3891 C.3     1  UNL1        0.0897
@<TRIPOS>BOND
     1    19    20    1
     2    20    13    1
     3    13    14   ar
     4    14    15   ar
     5    15    16   ar
     6    16    17   ar
     7    17    18   ar
     8    18    11    1
     9    11    12    1
    10    11     1    1
    11     1     2    2
    12     2    21    1
    13    21    22    1
    14    22    23    1
    15    23    24    1
    16    23    25    1
    17     2     3    1
    18     3     4    1
    19     4     5   ar
    20     5     6   ar
    21     6     7    1
    22     6     8   ar
    23     8     9   ar
    24     9    10   ar
    25    18    13   ar
    26    10     1    1
    27    10     4   ar
@<TRIPOS>MOLECULE
*****
 25 27 0 0 0
SMALL
GASTEIGER

@<TRIPOS>ATOM
      1 C          63.3276   85.9967   12.8240 C.2     1  UNL1       -0.0245
      2 C          63.8357   85.1525   13.9550 C.2     1  UNL1       -0.0421
      3 C          64.4291   86.0668   14.9855 C.3     1  UNL1        0.0480
      4 C          64.2877   87.4760   14.4915 C.ar    1  UNL1       -0.0187
      5 C          64.6908   88.7930   15.0855 C.ar    1  UNL1       -0.0082
      6 C          64.4132   90.0668   14.3436 C.ar    1  UNL1       -0.0222
      7 C          64.8164   91.3839   14.9376 C.3     1  UNL1        0.0310
      8 C          63.7324   90.0235   13.0077 C.ar    1  UNL1       -0.0043
      9 C          63.3292   88.7065   12.4137 C.ar    1  UNL1       -0.0009
     10 C          63.6069   87.4327   13.1556 C.ar    1  UNL1       -0.0079
     11 C          62.6577   85.4934   11.5799 C.3     1  UNL1        0.0666
     12 C          62.8899   84.0843   11.1207 C.3     1  UNL1        0.0112
     13 C          61.9415   86.5424    9.3135 C.ar    1  UNL1        0.2393
     14 N          61.0394   87.4479    8.5286 N.ar    1  UNL1       -0.2075
     15 C          59.9512   88.2100    9.2251 C.ar    1  UNL1        0.1227
     16 C          59.7652   88.0665   10.7066 C.ar    1  UNL1        0.1193
     17 N          60.6674   87.1610   11.4915 N.ar    1  UNL1       -0.2415
     18 C          61.7556   86.3989   10.7950 C.ar    1  UNL1        0.1156
     19 C          62.6947   84.8760    7.4680 C.3     1  UNL1        0.2543
     20 O          63.0296   85.7803    8.6169 O.3     1  UNL1       -0.4553
     21 C          63.7633   83.6567   14.0404 C.3     1  UNL1        0.0394
     22 C          62.4766   82.9890   14.4258 C.3     1  UNL1        0.0765
     23 N          62.2096   81.5747   14.0031 N.3     1  UNL1       -0.2700
     24 C          60.8364   80.9917   14.1598 C.3     1  UNL1        0.0897
     25 C          63.3156   80.7436   13.4237 C.3     1  UNL1        0.0897
@<TRIPOS>BOND
     1    19    20    1
     2    20    13    1
     3    13    14   ar
     4    14    15   ar
     5    15    16   ar
     6    16    17   ar
     7    17    18   ar
     8    18    11    1
     9    11    12    1
    10    11     1    1
    11     1     2    2
    12     2    21    1
    13    21    22    1
    14    22    23    1
    15    23    24    1
    16    23    25    1
    17     2     3    1
    18     3     4    1
    19     4     5   ar
    20     5     6   ar
    21     6     7    1
    22     6     8   ar
    23     8     9   ar
    24     9    10   ar
    25    18    13   ar
    26    10     1    1
    27    10     4   ar
