@<TRIPOS>MOLECULE
*****
 27 30 0 0 0
SMALL
GASTEIGER

@<TRIPOS>ATOM
      1 C          62.7626   81.5830   12.3580 C.2     1  UNL1        0.0919
      2 C          62.6726   81.7379   13.8472 C.2     1  UNL1        0.0183
      3 C          62.7232   83.1045   14.4635 C.2     1  UNL1        0.0511
      4 C          62.8638   84.3162   13.5906 C.2     1  UNL1        0.2322
      5 N          62.9409   85.7798   13.9099 N.2     1  UNL1       -0.0308
      6 C          63.0786   86.5294   12.6180 C.2     1  UNL1        0.3749
      7 N          63.0865   85.5292   11.5002 N.2     1  UNL1       -0.0347
      8 C          62.9538   84.1613   12.1014 C.2     1  UNL1        0.2191
      9 C          62.9032   82.7947   11.4851 C.3     1  UNL1        0.1226
     10 C          63.1890   88.0181   12.4699 C.ar    1  UNL1        0.0845
     11 C          62.5237   88.7083   11.3162 C.ar    1  UNL1        0.0074
     12 C          62.6340   90.1969   11.1681 C.ar    1  UNL1        0.0002
     13 C          63.4097   90.9952   12.1736 C.ar    1  UNL1       -0.0003
     14 C          64.0749   90.3049   13.3272 C.ar    1  UNL1       -0.0037
     15 C          63.9646   88.8164   13.4754 C.ar    1  UNL1       -0.0144
     16 C          64.6299   88.1261   14.6290 C.3     1  UNL1        0.0313
     17 C          64.8506   91.1033   14.3328 C.ar    1  UNL1       -0.0003
     18 C          64.2344   91.4424   15.6576 C.ar    1  UNL1       -0.0000
     19 C          65.0101   92.2407   16.6631 C.ar    1  UNL1       -0.0000
     20 C          66.4019   92.6999   16.3437 C.ar    1  UNL1       -0.0000
     21 C          67.0181   92.3608   15.0188 C.ar    1  UNL1       -0.0000
     22 C          66.2424   91.5625   14.0134 C.ar    1  UNL1       -0.0000
     23 S          62.7120   80.2164   11.7416 S.O2    1  UNL1        0.0054
     24 O          63.1186   80.7975   10.4199 O.2     1  UNL1       -0.1689
     25 O          62.3054   79.6353   13.0634 O.2     1  UNL1       -0.1689
     26 C          62.7406   78.6956    9.6354 C.3     1  UNL1        0.0276
     27 C          62.6614   78.8498   11.1253 C.3     1  UNL1        0.1556
@<TRIPOS>BOND
     1    26    27    1
     2    27    23    1
     3    23    24    2
     4    23    25    2
     5    23     1    1
     6     1     2    2
     7     2     3    1
     8     3     4    2
     9     4     5    1
    10     5     6    2
    11     6    10    1
    12    10    11   ar
    13    11    12   ar
    14    12    13   ar
    15    13    14   ar
    16    14    17    1
    17    17    18   ar
    18    18    19   ar
    19    19    20   ar
    20    20    21   ar
    21    21    22   ar
    22    14    15   ar
    23    15    16    1
    24     6     7    1
    25     7     8    2
    26     8     9    1
    27     9     1    1
    28     8     4    1
    29    15    10   ar
    30    22    17   ar
@<TRIPOS>MOLECULE
*****
 27 30 0 0 0
SMALL
GASTEIGER

@<TRIPOS>ATOM
      1 C          65.2528   92.7488   11.7835 C.2     1  UNL1        0.0919
      2 C          64.2633   92.2403   10.7775 C.2     1  UNL1        0.0183
      3 C          63.5242   90.9603   11.0332 C.2     1  UNL1        0.0511
      4 C          63.7747   90.1888   12.2949 C.2     1  UNL1        0.2322
      5 N          63.2006   88.9053   12.8173 N.2     1  UNL1       -0.0308
      6 C          63.8354   88.6205   14.1463 C.2     1  UNL1        0.3749
      7 N          64.8018   89.7281   14.4452 N.2     1  UNL1       -0.0347
      8 C          64.7642   90.6973   13.3010 C.2     1  UNL1        0.2191
      9 C          65.5033   91.9773   13.0452 C.3     1  UNL1        0.1226
     10 C          63.5533   87.4360   15.0224 C.ar    1  UNL1        0.0845
     11 C          63.3588   87.6239   16.4978 C.ar    1  UNL1        0.0074
     12 C          63.0767   86.4396   17.3740 C.ar    1  UNL1        0.0002
     13 C          62.9891   85.0673   16.7747 C.ar    1  UNL1       -0.0003
     14 C          63.1836   84.8794   15.2993 C.ar    1  UNL1       -0.0037
     15 C          63.4657   86.0638   14.4231 C.ar    1  UNL1       -0.0144
     16 C          63.6602   85.8759   12.9477 C.3     1  UNL1        0.0313
     17 C          63.0959   83.5071   14.7000 C.ar    1  UNL1       -0.0003
     18 C          64.3034   82.8903   14.0586 C.ar    1  UNL1       -0.0000
     19 C          64.2158   81.5180   13.4594 C.ar    1  UNL1       -0.0000
     20 C          62.9206   80.7625   13.5016 C.ar    1  UNL1       -0.0000
     21 C          61.7131   81.3793   14.1430 C.ar    1  UNL1       -0.0000
     22 C          61.8008   82.7516   14.7422 C.ar    1  UNL1       -0.0000
     23 S          65.9919   94.0288   11.5277 S.O2    1  UNL1        0.0054
     24 O          65.9575   93.7541   10.0535 O.2     1  UNL1       -0.1689
     25 O          66.0263   94.3034   13.0020 O.2     1  UNL1       -0.1689
     26 C          66.0254   96.6243   11.4182 C.3     1  UNL1        0.0276
     27 C          66.7310   95.3087   11.2720 C.3     1  UNL1        0.1556
@<TRIPOS>BOND
     1    26    27    1
     2    27    23    1
     3    23    24    2
     4    23    25    2
     5    23     1    1
     6     1     2    2
     7     2     3    1
     8     3     4    2
     9     4     5    1
    10     5     6    2
    11     6    10    1
    12    10    11   ar
    13    11    12   ar
    14    12    13   ar
    15    13    14   ar
    16    14    17    1
    17    17    18   ar
    18    18    19   ar
    19    19    20   ar
    20    20    21   ar
    21    21    22   ar
    22    14    15   ar
    23    15    16    1
    24     6     7    1
    25     7     8    2
    26     8     9    1
    27     9     1    1
    28     8     4    1
    29    15    10   ar
    30    22    17   ar
@<TRIPOS>MOLECULE
*****
 27 30 0 0 0
SMALL
GASTEIGER

@<TRIPOS>ATOM
      1 C          59.3933   89.3442    7.0315 C.2     1  UNL1        0.0919
      2 C          59.0054   87.8987    7.1307 C.2     1  UNL1        0.0183
      3 C          59.5590   87.0477    8.2349 C.2     1  UNL1        0.0511
      4 C          60.5006   87.6421    9.2399 C.2     1  UNL1        0.2322
      5 N          61.2017   87.0546   10.4286 N.2     1  UNL1       -0.0308
      6 C          62.0230   88.1370   11.0642 C.2     1  UNL1        0.3749
      7 N          61.8294   89.3936   10.2681 N.2     1  UNL1       -0.0347
      8 C          60.8885   89.0877    9.1407 C.2     1  UNL1        0.2191
      9 C          60.3349   89.9387    8.0365 C.3     1  UNL1        0.1226
     10 C          62.8863   87.9889   12.2819 C.ar    1  UNL1        0.0845
     11 C          63.1884   86.6239   12.8255 C.ar    1  UNL1        0.0074
     12 C          64.0516   86.4757   14.0432 C.ar    1  UNL1        0.0002
     13 C          64.6127   87.6925   14.7173 C.ar    1  UNL1       -0.0003
     14 C          64.3106   89.0575   14.1737 C.ar    1  UNL1       -0.0037
     15 C          63.4474   89.2057   12.9560 C.ar    1  UNL1       -0.0144
     16 C          63.1453   90.5707   12.4124 C.3     1  UNL1        0.0313
     17 C          64.8718   90.2744   14.8479 C.ar    1  UNL1       -0.0003
     18 C          66.2014   90.8221   14.4212 C.ar    1  UNL1       -0.0000
     19 C          66.7625   92.0389   15.0954 C.ar    1  UNL1       -0.0000
     20 C          65.9940   92.7079   16.1962 C.ar    1  UNL1       -0.0000
     21 C          64.6644   92.1602   16.6228 C.ar    1  UNL1       -0.0000
     22 C          64.1033   90.9434   15.9487 C.ar    1  UNL1       -0.0000
     23 S          58.8397   90.1953    5.9273 S.O2    1  UNL1        0.0054
     24 O          60.2336   90.5508    5.5025 O.2     1  UNL1       -0.1689
     25 O          57.4457   89.8398    6.3522 O.2     1  UNL1       -0.1689
     26 C          59.0692   92.2214    4.3174 C.3     1  UNL1        0.0276
     27 C          58.2860   91.0463    4.8232 C.3     1  UNL1        0.1556
@<TRIPOS>BOND
     1    26    27    1
     2    27    23    1
     3    23    24    2
     4    23    25    2
     5    23     1    1
     6     1     2    2
     7     2     3    1
     8     3     4    2
     9     4     5    1
    10     5     6    2
    11     6    10    1
    12    10    11   ar
    13    11    12   ar
    14    12    13   ar
    15    13    14   ar
    16    14    17    1
    17    17    18   ar
    18    18    19   ar
    19    19    20   ar
    20    20    21   ar
    21    21    22   ar
    22    14    15   ar
    23    15    16    1
    24     6     7    1
    25     7     8    2
    26     8     9    1
    27     9     1    1
    28     8     4    1
    29    15    10   ar
    30    22    17   ar
@<TRIPOS>MOLECULE
*****
 27 30 0 0 0
SMALL
GASTEIGER

@<TRIPOS>ATOM
      1 C          66.6898   92.6081   14.1751 C.2     1  UNL1        0.0919
      2 C          66.5921   93.4569   12.9422 C.2     1  UNL1        0.0183
      3 C          65.5522   93.1549   11.9042 C.2     1  UNL1        0.0511
      4 C          64.6101   92.0041   12.0990 C.2     1  UNL1        0.2322
      5 N          63.4916   91.4687   11.2551 N.2     1  UNL1       -0.0308
      6 C          62.8979   90.2890   11.9663 C.2     1  UNL1        0.3749
      7 N          63.6496   90.0953   13.2499 N.2     1  UNL1       -0.0347
      8 C          64.7077   91.1553   13.3318 C.2     1  UNL1        0.2191
      9 C          65.7476   91.4573   14.3699 C.3     1  UNL1        0.1226
     10 C          61.7536   89.4502   11.4794 C.ar    1  UNL1        0.0845
     11 C          60.3910   89.6171   12.0840 C.ar    1  UNL1        0.0074
     12 C          59.2466   88.7784   11.5972 C.ar    1  UNL1        0.0002
     13 C          59.4649   87.7728   10.5058 C.ar    1  UNL1       -0.0003
     14 C          60.8275   87.6060    9.9012 C.ar    1  UNL1       -0.0037
     15 C          61.9718   88.4447   10.3881 C.ar    1  UNL1       -0.0144
     16 C          63.3344   88.2778    9.7835 C.3     1  UNL1        0.0313
     17 C          61.0457   86.6003    8.8098 C.ar    1  UNL1       -0.0003
     18 C          59.9409   86.2902    7.8439 C.ar    1  UNL1       -0.0000
     19 C          60.1591   85.2846    6.7525 C.ar    1  UNL1       -0.0000
     20 C          61.4822   84.5891    6.6271 C.ar    1  UNL1       -0.0000
     21 C          62.5871   84.8993    7.5930 C.ar    1  UNL1       -0.0000
     22 C          62.3688   85.9048    8.6844 C.ar    1  UNL1       -0.0000
     23 S          67.7296   92.9100   15.2131 S.O2    1  UNL1        0.0054
     24 O          68.8039   92.7819   14.1742 O.2     1  UNL1       -0.1689
     25 O          66.6553   93.0382   16.2521 O.2     1  UNL1       -0.1689
     26 C          69.5710   94.4769   16.1641 C.3     1  UNL1        0.0276
     27 C          68.7695   93.2120   16.2512 C.3     1  UNL1        0.1556
@<TRIPOS>BOND
     1    26    27    1
     2    27    23    1
     3    23    24    2
     4    23    25    2
     5    23     1    1
     6     1     2    2
     7     2     3    1
     8     3     4    2
     9     4     5    1
    10     5     6    2
    11     6    10    1
    12    10    11   ar
    13    11    12   ar
    14    12    13   ar
    15    13    14   ar
    16    14    17    1
    17    17    18   ar
    18    18    19   ar
    19    19    20   ar
    20    20    21   ar
    21    21    22   ar
    22    14    15   ar
    23    15    16    1
    24     6     7    1
    25     7     8    2
    26     8     9    1
    27     9     1    1
    28     8     4    1
    29    15    10   ar
    30    22    17   ar
@<TRIPOS>MOLECULE
*****
 27 30 0 0 0
SMALL
GASTEIGER

@<TRIPOS>ATOM
      1 C          66.5066   92.5796   14.4392 C.2     1  UNL1        0.0919
      2 C          66.0933   93.3759   13.2372 C.2     1  UNL1        0.0183
      3 C          65.1662   92.7754   12.2223 C.2     1  UNL1        0.0511
      4 C          64.6524   91.3787   12.4096 C.2     1  UNL1        0.2322
      5 N          63.7335   90.5281   11.5837 N.2     1  UNL1       -0.0308
      6 C          63.5789   89.2061   12.2754 C.2     1  UNL1        0.3749
      7 N          64.4023   89.2396   13.5288 N.2     1  UNL1       -0.0347
      8 C          65.0657   90.5824   13.6117 C.2     1  UNL1        0.2191
      9 C          65.9928   91.1829   14.6265 C.3     1  UNL1        0.1226
     10 C          62.7469   88.0529   11.7976 C.ar    1  UNL1        0.0845
     11 C          61.6890   88.2718   10.7569 C.ar    1  UNL1        0.0074
     12 C          60.8571   87.1188   10.2791 C.ar    1  UNL1        0.0002
     13 C          61.0831   85.7469   10.8419 C.ar    1  UNL1       -0.0003
     14 C          62.1410   85.5280   11.8826 C.ar    1  UNL1       -0.0037
     15 C          62.9729   86.6811   12.3604 C.ar    1  UNL1       -0.0144
     16 C          64.0308   86.4622   13.4011 C.3     1  UNL1        0.0313
     17 C          62.3669   84.1560   12.4454 C.ar    1  UNL1       -0.0003
     18 C          62.1576   83.9019   13.9088 C.ar    1  UNL1       -0.0000
     19 C          62.3836   82.5300   14.4715 C.ar    1  UNL1       -0.0000
     20 C          62.8188   81.4122   13.5709 C.ar    1  UNL1       -0.0000
     21 C          63.0280   81.6663   12.1075 C.ar    1  UNL1       -0.0000
     22 C          62.8021   83.0383   11.5447 C.ar    1  UNL1       -0.0000
     23 S          67.4338   93.1801   15.4541 S.O2    1  UNL1        0.0054
     24 O          68.5067   93.2860   14.4112 O.2     1  UNL1       -0.1689
     25 O          66.3608   93.0742   16.4969 O.2     1  UNL1       -0.1689
     26 C          69.7230   94.2522   16.0540 C.3     1  UNL1        0.0276
     27 C          68.3609   93.7805   16.4689 C.3     1  UNL1        0.1556
@<TRIPOS>BOND
     1    26    27    1
     2    27    23    1
     3    23    24    2
     4    23    25    2
     5    23     1    1
     6     1     2    2
     7     2     3    1
     8     3     4    2
     9     4     5    1
    10     5     6    2
    11     6    10    1
    12    10    11   ar
    13    11    12   ar
    14    12    13   ar
    15    13    14   ar
    16    14    17    1
    17    17    18   ar
    18    18    19   ar
    19    19    20   ar
    20    20    21   ar
    21    21    22   ar
    22    14    15   ar
    23    15    16    1
    24     6     7    1
    25     7     8    2
    26     8     9    1
    27     9     1    1
    28     8     4    1
    29    15    10   ar
    30    22    17   ar
@<TRIPOS>MOLECULE
*****
 27 30 0 0 0
SMALL
GASTEIGER

@<TRIPOS>ATOM
      1 C          46.2472   78.8925   19.0381 C.2     1  UNL1        0.0919
      2 C          47.6400   78.3555   19.1848 C.2     1  UNL1        0.0183
      3 C          47.9074   76.8953   18.9698 C.2     1  UNL1        0.0511
      4 C          46.7819   75.9720   18.6082 C.2     1  UNL1        0.2322
      5 N          46.7411   74.4973   18.3369 N.2     1  UNL1       -0.0308
      6 C          45.3231   74.1229   18.0225 C.2     1  UNL1        0.3749
      7 N          44.4874   75.3661   18.0995 N.2     1  UNL1       -0.0347
      8 C          45.3891   76.5090   18.4615 C.2     1  UNL1        0.2191
      9 C          45.1217   77.9692   18.6764 C.3     1  UNL1        0.1226
     10 C          44.8276   72.7467   17.6895 C.ar    1  UNL1        0.0845
     11 C          44.1308   71.9272   18.7349 C.ar    1  UNL1        0.0074
     12 C          43.6353   70.5511   18.4020 C.ar    1  UNL1        0.0002
     13 C          43.8368   69.9945   17.0238 C.ar    1  UNL1       -0.0003
     14 C          44.5337   70.8140   15.9784 C.ar    1  UNL1       -0.0037
     15 C          45.0291   72.1901   16.3113 C.ar    1  UNL1       -0.0144
     16 C          45.7260   73.0096   15.2660 C.3     1  UNL1        0.0313
     17 C          44.7351   70.2573   14.6001 C.ar    1  UNL1       -0.0003
     18 C          43.6340   70.3492   13.5858 C.ar    1  UNL1       -0.0000
     19 C          43.8354   69.7925   12.2076 C.ar    1  UNL1       -0.0000
     20 C          45.1381   69.1440   11.8437 C.ar    1  UNL1       -0.0000
     21 C          46.2393   69.0521   12.8581 C.ar    1  UNL1       -0.0000
     22 C          46.0378   69.6088   14.2363 C.ar    1  UNL1       -0.0000
     23 S          45.9798   80.3527   19.2531 S.O2    1  UNL1        0.0054
     24 O          45.8036   80.1042   20.7218 O.2     1  UNL1       -0.1689
     25 O          46.1559   80.6012   17.7843 O.2     1  UNL1       -0.1689
     26 C          44.3435   82.3704   19.2122 C.3     1  UNL1        0.0276
     27 C          45.7124   81.8129   19.4680 C.3     1  UNL1        0.1556
@<TRIPOS>BOND
     1    26    27    1
     2    27    23    1
     3    23    24    2
     4    23    25    2
     5    23     1    1
     6     1     2    2
     7     2     3    1
     8     3     4    2
     9     4     5    1
    10     5     6    2
    11     6    10    1
    12    10    11   ar
    13    11    12   ar
    14    12    13   ar
    15    13    14   ar
    16    14    17    1
    17    17    18   ar
    18    18    19   ar
    19    19    20   ar
    20    20    21   ar
    21    21    22   ar
    22    14    15   ar
    23    15    16    1
    24     6     7    1
    25     7     8    2
    26     8     9    1
    27     9     1    1
    28     8     4    1
    29    15    10   ar
    30    22    17   ar
@<TRIPOS>MOLECULE
*****
 27 30 0 0 0
SMALL
GASTEIGER

@<TRIPOS>ATOM
      1 C          61.1131   87.0383    8.7919 C.2     1  UNL1        0.0919
      2 C          60.3424   88.3120    8.6081 C.2     1  UNL1        0.0183
      3 C          60.4616   89.4133    9.6196 C.2     1  UNL1        0.0511
      4 C          61.3514   89.2409   10.8147 C.2     1  UNL1        0.2322
      5 N          61.6673   90.1445   11.9696 N.2     1  UNL1       -0.0308
      6 C          62.6332   89.4293   12.8671 C.2     1  UNL1        0.3749
      7 N          62.9143   88.0837   12.2669 N.2     1  UNL1       -0.0347
      8 C          62.1221   87.9673   10.9985 C.2     1  UNL1        0.2191
      9 C          62.0029   86.8660    9.9870 C.3     1  UNL1        0.1226
     10 C          63.2157   89.9656   14.1411 C.ar    1  UNL1        0.0845
     11 C          62.5532   89.6662   15.4531 C.ar    1  UNL1        0.0074
     12 C          63.1357   90.2025   16.7271 C.ar    1  UNL1        0.0002
     13 C          64.3806   91.0382   16.6891 C.ar    1  UNL1       -0.0003
     14 C          65.0432   91.3377   15.3771 C.ar    1  UNL1       -0.0037
     15 C          64.4607   90.8014   14.1031 C.ar    1  UNL1       -0.0144
     16 C          65.1232   91.1009   12.7911 C.3     1  UNL1        0.0313
     17 C          66.2882   92.1735   15.3391 C.ar    1  UNL1       -0.0003
     18 C          66.2938   93.4775   14.5979 C.ar    1  UNL1       -0.0000
     19 C          67.5388   94.3132   14.5599 C.ar    1  UNL1       -0.0000
     20 C          68.7782   93.8449   15.2632 C.ar    1  UNL1       -0.0000
     21 C          68.7726   92.5409   16.0044 C.ar    1  UNL1       -0.0000
     22 C          67.5276   91.7052   16.0423 C.ar    1  UNL1       -0.0000
     23 S          60.9940   85.9371    7.7805 S.O2    1  UNL1        0.0054
     24 O          62.4045   85.5176    8.0710 O.2     1  UNL1       -0.1689
     25 O          59.5834   86.3565    7.4899 O.2     1  UNL1       -0.1689
     26 C          62.0842   84.3858    6.0042 C.3     1  UNL1        0.0276
     27 C          60.8749   84.8358    6.7690 C.3     1  UNL1        0.1556
@<TRIPOS>BOND
     1    26    27    1
     2    27    23    1
     3    23    24    2
     4    23    25    2
     5    23     1    1
     6     1     2    2
     7     2     3    1
     8     3     4    2
     9     4     5    1
    10     5     6    2
    11     6    10    1
    12    10    11   ar
    13    11    12   ar
    14    12    13   ar
    15    13    14   ar
    16    14    17    1
    17    17    18   ar
    18    18    19   ar
    19    19    20   ar
    20    20    21   ar
    21    21    22   ar
    22    14    15   ar
    23    15    16    1
    24     6     7    1
    25     7     8    2
    26     8     9    1
    27     9     1    1
    28     8     4    1
    29    15    10   ar
    30    22    17   ar
@<TRIPOS>MOLECULE
*****
 27 30 0 0 0
SMALL
GASTEIGER

@<TRIPOS>ATOM
      1 C          65.0384   91.3105   13.4893 C.2     1  UNL1        0.0919
      2 C          64.1538   91.2808   12.2784 C.2     1  UNL1        0.0183
      3 C          63.4110   90.0270   11.9228 C.2     1  UNL1        0.0511
      4 C          63.5529   88.8031   12.7782 C.2     1  UNL1        0.2322
      5 N          62.9496   87.4334   12.6785 N.2     1  UNL1       -0.0308
      6 C          63.4614   86.6166   13.8279 C.2     1  UNL1        0.3749
      7 N          64.3811   87.4815   14.6379 N.2     1  UNL1       -0.0347
      8 C          64.4376   88.8328   13.9892 C.2     1  UNL1        0.2191
      9 C          65.1803   90.0866   14.3447 C.3     1  UNL1        0.1226
     10 C          63.1145   85.1860   14.1164 C.ar    1  UNL1        0.0845
     11 C          62.6958   84.7800   15.4984 C.ar    1  UNL1        0.0074
     12 C          62.3488   83.3495   15.7870 C.ar    1  UNL1        0.0002
     13 C          62.4207   82.3251   14.6937 C.ar    1  UNL1       -0.0003
     14 C          62.8394   82.7312   13.3117 C.ar    1  UNL1       -0.0037
     15 C          63.1863   84.1616   13.0231 C.ar    1  UNL1       -0.0144
     16 C          63.6051   84.5677   11.6412 C.3     1  UNL1        0.0313
     17 C          62.9112   81.7067   12.2184 C.ar    1  UNL1       -0.0003
     18 C          63.3618   82.1062   10.8446 C.ar    1  UNL1       -0.0000
     19 C          63.4336   81.0817    9.7514 C.ar    1  UNL1       -0.0000
     20 C          63.0548   79.6577   10.0319 C.ar    1  UNL1       -0.0000
     21 C          62.6042   79.2582   11.4056 C.ar    1  UNL1       -0.0000
     22 C          62.5324   80.2827   12.4989 C.ar    1  UNL1       -0.0000
     23 S          65.7812   92.5643   13.8449 S.O2    1  UNL1        0.0054
     24 O          65.9028   92.0901   15.2628 O.2     1  UNL1       -0.1689
     25 O          65.6596   93.0384   12.4270 O.2     1  UNL1       -0.1689
     26 C          67.6481   93.7681   15.1922 C.3     1  UNL1        0.0276
     27 C          66.5240   93.8180   14.2004 C.3     1  UNL1        0.1556
@<TRIPOS>BOND
     1    26    27    1
     2    27    23    1
     3    23    24    2
     4    23    25    2
     5    23     1    1
     6     1     2    2
     7     2     3    1
     8     3     4    2
     9     4     5    1
    10     5     6    2
    11     6    10    1
    12    10    11   ar
    13    11    12   ar
    14    12    13   ar
    15    13    14   ar
    16    14    17    1
    17    17    18   ar
    18    18    19   ar
    19    19    20   ar
    20    20    21   ar
    21    21    22   ar
    22    14    15   ar
    23    15    16    1
    24     6     7    1
    25     7     8    2
    26     8     9    1
    27     9     1    1
    28     8     4    1
    29    15    10   ar
    30    22    17   ar
@<TRIPOS>MOLECULE
*****
 27 30 0 0 0
SMALL
GASTEIGER

@<TRIPOS>ATOM
      1 C          62.7721   81.4123   12.2391 C.2     1  UNL1        0.0919
      2 C          62.0968   80.9599   13.4997 C.2     1  UNL1        0.0183
      3 C          61.9278   81.9146   14.6442 C.2     1  UNL1        0.0511
      4 C          62.4342   83.3217   14.5281 C.2     1  UNL1        0.2322
      5 N          62.4107   84.4788   15.4824 N.2     1  UNL1       -0.0308
      6 C          63.0716   85.6464   14.8115 C.2     1  UNL1        0.3749
      7 N          63.5035   85.2109   13.4426 N.2     1  UNL1       -0.0347
      8 C          63.1095   83.7741   13.2675 C.2     1  UNL1        0.2191
      9 C          63.2785   82.8194   12.1230 C.3     1  UNL1        0.1226
     10 C          63.2664   87.0101   15.4053 C.ar    1  UNL1        0.0845
     11 C          62.9212   87.2579   16.8439 C.ar    1  UNL1        0.0074
     12 C          63.1160   88.6215   17.4377 C.ar    1  UNL1        0.0002
     13 C          63.6559   89.7372   16.5929 C.ar    1  UNL1       -0.0003
     14 C          64.0011   89.4894   15.1544 C.ar    1  UNL1       -0.0037
     15 C          63.8063   88.1258   14.5606 C.ar    1  UNL1       -0.0144
     16 C          64.1515   87.8779   13.1220 C.3     1  UNL1        0.0313
     17 C          64.5410   90.6052   14.3097 C.ar    1  UNL1       -0.0003
     18 C          65.7640   91.3542   14.7490 C.ar    1  UNL1       -0.0000
     19 C          66.3039   92.4700   13.9043 C.ar    1  UNL1       -0.0000
     20 C          65.6208   92.8366   12.6202 C.ar    1  UNL1       -0.0000
     21 C          64.3978   92.0876   12.1808 C.ar    1  UNL1       -0.0000
     22 C          63.8579   90.9718   13.0256 C.ar    1  UNL1       -0.0000
     23 S          62.9411   80.4575   11.0946 S.O2    1  UNL1        0.0054
     24 O          62.5274   79.3209   11.9816 O.2     1  UNL1       -0.1689
     25 O          63.3548   81.5942   10.2075 O.2     1  UNL1       -0.1689
     26 C          62.8011   78.0468   10.1360 C.3     1  UNL1        0.0276
     27 C          63.1101   79.5028    9.9500 C.3     1  UNL1        0.1556
@<TRIPOS>BOND
     1    26    27    1
     2    27    23    1
     3    23    24    2
     4    23    25    2
     5    23     1    1
     6     1     2    2
     7     2     3    1
     8     3     4    2
     9     4     5    1
    10     5     6    2
    11     6    10    1
    12    10    11   ar
    13    11    12   ar
    14    12    13   ar
    15    13    14   ar
    16    14    17    1
    17    17    18   ar
    18    18    19   ar
    19    19    20   ar
    20    20    21   ar
    21    21    22   ar
    22    14    15   ar
    23    15    16    1
    24     6     7    1
    25     7     8    2
    26     8     9    1
    27     9     1    1
    28     8     4    1
    29    15    10   ar
    30    22    17   ar
