@<TRIPOS>MOLECULE
*****
 39 43 0 0 0
SMALL
GASTEIGER

@<TRIPOS>ATOM
      1 C          65.0665   91.4699   13.9200 C.3     1  UNL1        0.0762
      2 C          63.7490   90.6752   16.0135 C.ar    1  UNL1        0.1351
      3 C          63.1779   89.5648   16.8448 C.ar    1  UNL1        0.0366
      4 C          63.3533   88.1388   16.4138 C.ar    1  UNL1        0.0030
      5 C          62.7823   87.0284   17.2451 C.ar    1  UNL1        0.0008
      6 C          62.9577   85.6025   16.8142 C.ar    1  UNL1        0.0103
      7 C          63.7042   85.2868   15.5520 C.ar    1  UNL1        0.0684
      8 C          64.2752   86.3971   14.7207 C.ar    1  UNL1        0.0103
      9 C          64.0998   87.8231   15.1517 C.ar    1  UNL1        0.0006
     10 C          64.6709   88.9335   14.3204 C.ar    1  UNL1       -0.0009
     11 C          64.4955   90.3595   14.7513 C.ar    1  UNL1        0.0181
     12 C          64.5920   92.7455   17.3376 C.3     1  UNL1        0.2525
     13 O          63.5736   92.1012   16.4444 O.3     1  UNL1       -0.4717
     14 C          63.8796   83.8607   15.1211 C.1     1  UNL1        0.1004
     15 N          64.0549   82.4347   14.6902 N.1     1  UNL1       -0.1908
     16 C          66.2218   92.2754   14.4363 C.ar    1  UNL1       -0.0135
     17 C          66.3230   93.7360   14.1101 C.ar    1  UNL1       -0.0037
     18 C          67.4783   94.5415   14.6264 C.ar    1  UNL1        0.0020
     19 C          68.5323   93.8864   15.4689 C.ar    1  UNL1        0.0296
     20 C          68.4311   92.4258   15.7952 C.ar    1  UNL1        0.1398
     21 F          69.4851   91.7707   16.6377 F       1  UNL1       -0.2042
     22 C          67.2758   91.6203   15.2789 C.ar    1  UNL1        0.0258
     23 C          64.4824   91.7748   12.5726 C.3     1  UNL1        0.1186
     24 O          63.1060   91.5198   13.1116 O.3     1  UNL1       -0.3819
     25 H          63.1604   90.9039   13.8590 H       1  UNL1        0.2107
     26 C          65.8587   92.0297   12.0335 C.ar    1  UNL1        0.0369
     27 C          66.9827   91.0968   12.3751 C.ar    1  UNL1        0.0010
     28 C          68.3590   91.3518   11.8361 C.ar    1  UNL1       -0.0000
     29 C          68.6115   92.5396   10.9555 C.ar    1  UNL1        0.0031
     30 C          67.4877   93.4724   10.6139 C.ar    1  UNL1        0.0375
     31 C          67.4345   94.7156    9.7763 C.ar    1  UNL1        0.0437
     32 C          66.0253   95.2290    9.7977 C.ar    1  UNL1        0.1796
     33 O          65.2075   94.3031   10.6485 O.2     1  UNL1       -0.4507
     34 C          66.1112   93.2175   11.1530 C.ar    1  UNL1        0.1436
     35 C          63.8982   92.0796   11.2251 C.3     1  UNL1        0.0492
     36 C          63.3907   90.9656   10.3582 C.3     1  UNL1        0.0750
     37 N          62.2816   90.0814   10.8461 N.3     1  UNL1       -0.2702
     38 C          60.8580   90.5455   10.7569 C.3     1  UNL1        0.0897
     39 C          62.5961   88.7330   11.4232 C.3     1  UNL1        0.0897
@<TRIPOS>BOND
     1    12    13    1
     2    13     2    1
     3     2     3   ar
     4     3     4   ar
     5     4     5   ar
     6     5     6   ar
     7     6     7   ar
     8     7    14    1
     9    14    15    3
    10     7     8   ar
    11     8     9   ar
    12     9    10   ar
    13    10    11   ar
    14     1    11    1
    15     1    16    1
    16    16    17   ar
    17    17    18   ar
    18    18    19   ar
    19    19    20   ar
    20    20    21    1
    21    20    22   ar
    22     1    23    1
    23    23    24    1
    24    23    35    1
    25    35    36    1
    26    36    37    1
    27    37    38    1
    28    37    39    1
    29    23    26    1
    30    26    27   ar
    31    27    28   ar
    32    28    29   ar
    33    29    30   ar
    34    30    31   ar
    35    31    32   ar
    36    32    33   ar
    37    33    34   ar
    38    11     2   ar
    39    22    16   ar
    40    34    26   ar
    41     9     4   ar
    42    34    30   ar
    43    24    25    1
@<TRIPOS>MOLECULE
*****
 39 43 0 0 0
SMALL
GASTEIGER

@<TRIPOS>ATOM
      1 C          61.7531   94.6921   -1.3327 C.3     1  UNL1        0.0762
      2 C          63.1250   93.4997    0.5238 C.ar    1  UNL1        0.1351
      3 C          63.1770   92.7513    1.8227 C.ar    1  UNL1        0.0366
      4 C          61.9090   92.4468    2.5641 C.ar    1  UNL1        0.0030
      5 C          61.9610   91.6984    3.8630 C.ar    1  UNL1        0.0008
      6 C          60.6931   91.3939    4.6044 C.ar    1  UNL1        0.0103
      7 C          59.3733   91.8378    4.0469 C.ar    1  UNL1        0.0684
      8 C          59.3213   92.5863    2.7480 C.ar    1  UNL1        0.0103
      9 C          60.5891   92.8907    2.0066 C.ar    1  UNL1        0.0006
     10 C          60.5372   93.6392    0.7077 C.ar    1  UNL1       -0.0009
     11 C          61.8051   93.9436   -0.0337 C.ar    1  UNL1        0.0181
     12 C          65.3461   94.8317    0.3169 C.3     1  UNL1        0.2525
     13 O          64.3929   93.8042   -0.2177 O.3     1  UNL1       -0.4717
     14 C          58.1053   91.5333    4.7884 C.1     1  UNL1        0.1004
     15 N          56.8374   91.2288    5.5298 N.1     1  UNL1       -0.1908
     16 C          62.7355   94.3748   -2.4209 C.ar    1  UNL1       -0.0135
     17 C          62.7866   92.9947   -3.0062 C.ar    1  UNL1       -0.0037
     18 C          63.7690   92.6774   -4.0944 C.ar    1  UNL1        0.0020
     19 C          64.7004   93.7402   -4.5973 C.ar    1  UNL1        0.0296
     20 C          64.6493   95.1204   -4.0119 C.ar    1  UNL1        0.1398
     21 F          65.5807   96.1832   -4.5148 F       1  UNL1       -0.2042
     22 C          63.6669   95.4377   -2.9237 C.ar    1  UNL1        0.0258
     23 C          60.7188   95.7578   -1.5433 C.3     1  UNL1        0.1186
     24 O          61.4129   96.6299   -0.5396 O.3     1  UNL1       -0.3819
     25 H          61.8984   96.0746    0.0904 H       1  UNL1        0.2107
     26 C          60.0247   94.8857   -2.5471 C.ar    1  UNL1        0.0369
     27 C          59.2269   93.7015   -2.0873 C.ar    1  UNL1        0.0010
     28 C          58.5328   92.8294   -3.0911 C.ar    1  UNL1       -0.0000
     29 C          58.6364   93.1413   -4.5546 C.ar    1  UNL1        0.0031
     30 C          59.4342   94.3254   -5.0144 C.ar    1  UNL1        0.0375
     31 C          59.7147   94.8774   -6.3806 C.ar    1  UNL1        0.0437
     32 C          60.5822   96.0907   -6.2213 C.ar    1  UNL1        0.1796
     33 O          60.8378   96.2886   -4.7565 O.2     1  UNL1       -0.4507
     34 C          60.1283   95.1976   -4.0106 C.ar    1  UNL1        0.1436
     35 C          59.6845   96.8235   -1.7540 C.3     1  UNL1        0.0492
     36 C          58.3528   96.7217   -1.0711 C.3     1  UNL1        0.0750
     37 N          57.1036   96.5543   -1.8845 N.3     1  UNL1       -0.2702
     38 C          57.1195   96.8553   -3.3539 C.3     1  UNL1        0.0897
     39 C          55.8386   96.0860   -1.2285 C.3     1  UNL1        0.0897
@<TRIPOS>BOND
     1    12    13    1
     2    13     2    1
     3     2     3   ar
     4     3     4   ar
     5     4     5   ar
     6     5     6   ar
     7     6     7   ar
     8     7    14    1
     9    14    15    3
    10     7     8   ar
    11     8     9   ar
    12     9    10   ar
    13    10    11   ar
    14     1    11    1
    15     1    16    1
    16    16    17   ar
    17    17    18   ar
    18    18    19   ar
    19    19    20   ar
    20    20    21    1
    21    20    22   ar
    22     1    23    1
    23    23    24    1
    24    23    35    1
    25    35    36    1
    26    36    37    1
    27    37    38    1
    28    37    39    1
    29    23    26    1
    30    26    27   ar
    31    27    28   ar
    32    28    29   ar
    33    29    30   ar
    34    30    31   ar
    35    31    32   ar
    36    32    33   ar
    37    33    34   ar
    38    11     2   ar
    39    22    16   ar
    40    34    26   ar
    41     9     4   ar
    42    34    30   ar
    43    24    25    1
@<TRIPOS>MOLECULE
*****
 39 43 0 0 0
SMALL
GASTEIGER

@<TRIPOS>ATOM
      1 C          59.7162   93.5336   -1.4801 C.3     1  UNL1        0.0762
      2 C          60.9074   95.4191   -2.8127 C.ar    1  UNL1        0.1351
      3 C          61.9416   95.8512   -3.8095 C.ar    1  UNL1        0.0366
      4 C          62.8190   94.8298   -4.4707 C.ar    1  UNL1        0.0030
      5 C          63.8532   95.2619   -5.4675 C.ar    1  UNL1        0.0008
      6 C          64.7305   94.2405   -6.1285 C.ar    1  UNL1        0.0103
      7 C          64.5736   92.7870   -5.7927 C.ar    1  UNL1        0.0684
      8 C          63.5394   92.3549   -4.7959 C.ar    1  UNL1        0.0103
      9 C          62.6621   93.3763   -4.1349 C.ar    1  UNL1        0.0006
     10 C          61.6278   92.9442   -3.1380 C.ar    1  UNL1       -0.0009
     11 C          60.7505   93.9656   -2.4770 C.ar    1  UNL1        0.0181
     12 C          58.7428   96.8559   -2.8000 C.3     1  UNL1        0.2525
     13 O          60.0301   96.4406   -2.1516 O.3     1  UNL1       -0.4717
     14 C          65.4510   91.7655   -6.4539 C.1     1  UNL1        0.1004
     15 N          66.3282   90.7441   -7.1149 N.1     1  UNL1       -0.1908
     16 C          58.2583   93.6816   -1.8001 C.ar    1  UNL1       -0.0135
     17 C          57.3622   94.4523   -0.8766 C.ar    1  UNL1       -0.0037
     18 C          55.9042   94.6004   -1.1965 C.ar    1  UNL1        0.0020
     19 C          55.3423   93.9777   -2.4401 C.ar    1  UNL1        0.0296
     20 C          56.2384   93.2069   -3.3637 C.ar    1  UNL1        0.1398
     21 F          55.6765   92.5842   -4.6073 F       1  UNL1       -0.2042
     22 C          57.6964   93.0589   -3.0437 C.ar    1  UNL1        0.0258
     23 C          60.1400   92.9535   -0.1633 C.3     1  UNL1        0.1186
     24 O          59.4872   91.6527   -0.5263 O.3     1  UNL1       -0.3819
     25 H          58.7655   91.8170   -1.1533 H       1  UNL1        0.2107
     26 C          60.7927   94.2543    0.1996 C.ar    1  UNL1        0.0369
     27 C          59.9572   95.4058    0.6749 C.ar    1  UNL1        0.0010
     28 C          60.6099   96.7066    1.0379 C.ar    1  UNL1       -0.0000
     29 C          62.0982   96.8560    0.9256 C.ar    1  UNL1        0.0031
     30 C          62.9338   95.7045    0.4504 C.ar    1  UNL1        0.0375
     31 C          64.4115   95.5562    0.2399 C.ar    1  UNL1        0.0437
     32 C          64.6721   94.1637   -0.2532 C.ar    1  UNL1        0.1796
     33 O          63.3554   93.4514   -0.3475 O.2     1  UNL1       -0.4507
     34 C          62.2810   94.4036    0.0873 C.ar    1  UNL1        0.1436
     35 C          60.5637   92.3734    1.1534 C.3     1  UNL1        0.0492
     36 C          59.8089   92.7188    2.4028 C.3     1  UNL1        0.0750
     37 N          60.2077   92.1073    3.7132 N.3     1  UNL1       -0.2702
     38 C          59.2024   91.9827    4.8195 C.3     1  UNL1        0.0897
     39 C          61.6117   91.6205    3.9173 C.3     1  UNL1        0.0897
@<TRIPOS>BOND
     1    12    13    1
     2    13     2    1
     3     2     3   ar
     4     3     4   ar
     5     4     5   ar
     6     5     6   ar
     7     6     7   ar
     8     7    14    1
     9    14    15    3
    10     7     8   ar
    11     8     9   ar
    12     9    10   ar
    13    10    11   ar
    14     1    11    1
    15     1    16    1
    16    16    17   ar
    17    17    18   ar
    18    18    19   ar
    19    19    20   ar
    20    20    21    1
    21    20    22   ar
    22     1    23    1
    23    23    24    1
    24    23    35    1
    25    35    36    1
    26    36    37    1
    27    37    38    1
    28    37    39    1
    29    23    26    1
    30    26    27   ar
    31    27    28   ar
    32    28    29   ar
    33    29    30   ar
    34    30    31   ar
    35    31    32   ar
    36    32    33   ar
    37    33    34   ar
    38    11     2   ar
    39    22    16   ar
    40    34    26   ar
    41     9     4   ar
    42    34    30   ar
    43    24    25    1
@<TRIPOS>MOLECULE
*****
 39 43 0 0 0
SMALL
GASTEIGER

@<TRIPOS>ATOM
      1 C          62.8305   89.4692   12.8886 C.3     1  UNL1        0.0762
      2 C          64.2991   91.2242   14.1190 C.ar    1  UNL1        0.1351
      3 C          65.2298   92.3996   14.0746 C.ar    1  UNL1        0.0366
      4 C          65.6227   92.9958   12.7554 C.ar    1  UNL1        0.0030
      5 C          66.5534   94.1713   12.7111 C.ar    1  UNL1        0.0008
      6 C          66.9464   94.7674   11.3919 C.ar    1  UNL1        0.0103
      7 C          66.4086   94.1880   10.1171 C.ar    1  UNL1        0.0684
      8 C          65.4779   93.0125   10.1615 C.ar    1  UNL1        0.0103
      9 C          65.0850   92.4164   11.4806 C.ar    1  UNL1        0.0006
     10 C          64.1542   91.2409   11.5250 C.ar    1  UNL1       -0.0009
     11 C          63.7613   90.6448   12.8442 C.ar    1  UNL1        0.0181
     12 C          63.9733   91.4578   16.6860 C.3     1  UNL1        0.2525
     13 O          63.9061   90.6280   15.4382 O.3     1  UNL1       -0.4717
     14 C          66.8016   94.7841    8.7979 C.1     1  UNL1        0.1004
     15 N          67.1946   95.3802    7.4787 N.1     1  UNL1       -0.1908
     16 C          61.3779   89.6500   12.5614 C.ar    1  UNL1       -0.0135
     17 C          60.9698   90.5472   11.4306 C.ar    1  UNL1       -0.0037
     18 C          59.5171   90.7280   11.1034 C.ar    1  UNL1        0.0020
     19 C          58.4725   90.0117   11.9070 C.ar    1  UNL1        0.0296
     20 C          58.8806   89.1145   13.0378 C.ar    1  UNL1        0.1398
     21 F          57.8360   88.3982   13.8413 F       1  UNL1       -0.2042
     22 C          60.3333   88.9337   13.3650 C.ar    1  UNL1        0.0258
     23 C          63.3525   88.1130   13.2602 C.3     1  UNL1        0.1186
     24 O          63.7544   88.6367   14.6071 O.3     1  UNL1       -0.3819
     25 H          63.9242   89.5898   14.5459 H       1  UNL1        0.2107
     26 C          62.9506   87.5893   11.9133 C.ar    1  UNL1        0.0369
     27 C          62.7185   88.5410   10.7772 C.ar    1  UNL1        0.0010
     28 C          62.3166   88.0172    9.4303 C.ar    1  UNL1       -0.0000
     29 C          62.1467   86.5419    9.2194 C.ar    1  UNL1        0.0031
     30 C          62.3787   85.5903   10.3554 C.ar    1  UNL1        0.0375
     31 C          62.2887   84.0958   10.4472 C.ar    1  UNL1        0.0437
     32 C          62.6349   83.6958   11.8508 C.ar    1  UNL1        0.1796
     33 O          62.9390   84.9431   12.6266 O.2     1  UNL1       -0.4507
     34 C          62.7807   86.1139   11.7024 C.ar    1  UNL1        0.1436
     35 C          63.8744   86.7568   13.6318 C.3     1  UNL1        0.0492
     36 C          64.3021   86.4783   15.0423 C.3     1  UNL1        0.0750
     37 N          63.3241   85.9017   16.0226 N.3     1  UNL1       -0.2702
     38 C          62.7308   84.5454   15.7805 C.3     1  UNL1        0.0897
     39 C          62.9394   86.6812   17.2450 C.3     1  UNL1        0.0897
@<TRIPOS>BOND
     1    12    13    1
     2    13     2    1
     3     2     3   ar
     4     3     4   ar
     5     4     5   ar
     6     5     6   ar
     7     6     7   ar
     8     7    14    1
     9    14    15    3
    10     7     8   ar
    11     8     9   ar
    12     9    10   ar
    13    10    11   ar
    14     1    11    1
    15     1    16    1
    16    16    17   ar
    17    17    18   ar
    18    18    19   ar
    19    19    20   ar
    20    20    21    1
    21    20    22   ar
    22     1    23    1
    23    23    24    1
    24    23    35    1
    25    35    36    1
    26    36    37    1
    27    37    38    1
    28    37    39    1
    29    23    26    1
    30    26    27   ar
    31    27    28   ar
    32    28    29   ar
    33    29    30   ar
    34    30    31   ar
    35    31    32   ar
    36    32    33   ar
    37    33    34   ar
    38    11     2   ar
    39    22    16   ar
    40    34    26   ar
    41     9     4   ar
    42    34    30   ar
    43    24    25    1
@<TRIPOS>MOLECULE
*****
 39 43 0 0 0
SMALL
GASTEIGER

@<TRIPOS>ATOM
      1 C          62.1788   88.7795   11.6003 C.3     1  UNL1        0.0762
      2 C          62.3027   87.0132    9.6990 C.ar    1  UNL1        0.1351
      3 C          62.5216   85.5979    9.2530 C.ar    1  UNL1        0.0366
      4 C          62.8354   84.5335   10.2623 C.ar    1  UNL1        0.0030
      5 C          63.0542   83.1182    9.8163 C.ar    1  UNL1        0.0008
      6 C          63.3680   82.0538   10.8255 C.ar    1  UNL1        0.0103
      7 C          63.4629   82.4047   12.2808 C.ar    1  UNL1        0.0684
      8 C          63.2441   83.8200   12.7268 C.ar    1  UNL1        0.0103
      9 C          62.9303   84.8844   11.7176 C.ar    1  UNL1        0.0006
     10 C          62.7114   86.2998   12.1636 C.ar    1  UNL1       -0.0009
     11 C          62.3977   87.3642   11.1543 C.ar    1  UNL1        0.0181
     12 C          60.5645   88.3541    8.3096 C.3     1  UNL1        0.2525
     13 O          61.9889   88.0777    8.6898 O.3     1  UNL1       -0.4717
     14 C          63.7767   81.3403   13.2901 C.1     1  UNL1        0.1004
     15 N          64.0905   80.2759   14.2993 N.1     1  UNL1       -0.1908
     16 C          60.7861   89.2854   11.8339 C.ar    1  UNL1       -0.0135
     17 C          60.3403   90.5721   11.2050 C.ar    1  UNL1       -0.0037
     18 C          58.9476   91.0780   11.4386 C.ar    1  UNL1        0.0020
     19 C          58.0008   90.2972   12.3010 C.ar    1  UNL1        0.0296
     20 C          58.4467   89.0104   12.9300 C.ar    1  UNL1        0.1398
     21 F          57.4999   88.2296   13.7924 F       1  UNL1       -0.2042
     22 C          59.8393   88.5045   12.6964 C.ar    1  UNL1        0.0258
     23 C          63.3526   89.6890   11.8127 C.3     1  UNL1        0.1186
     24 O          63.1477   90.2726   10.4462 O.3     1  UNL1       -0.3819
     25 H          62.7123   89.6186    9.8773 H       1  UNL1        0.2107
     26 C          63.5575   89.1054   13.1792 C.ar    1  UNL1        0.0369
     27 C          63.7890   87.6319   13.3385 C.ar    1  UNL1        0.0010
     28 C          63.9939   87.0483   14.7050 C.ar    1  UNL1       -0.0000
     29 C          63.9672   87.9381   15.9123 C.ar    1  UNL1        0.0031
     30 C          63.7357   89.4115   15.7531 C.ar    1  UNL1        0.0375
     31 C          63.6572   90.5288   16.7508 C.ar    1  UNL1        0.0437
     32 C          63.4038   91.8030   16.0009 C.ar    1  UNL1        0.1796
     33 O          63.3257   91.4731   14.5397 O.2     1  UNL1       -0.4507
     34 C          63.5308   89.9952   14.3865 C.ar    1  UNL1        0.1436
     35 C          64.5263   90.5984   12.0251 C.3     1  UNL1        0.0492
     36 C          64.5970   91.9124   11.3051 C.3     1  UNL1        0.0750
     37 N          65.5447   92.9756   11.7759 N.3     1  UNL1       -0.2702
     38 C          65.8408   94.1573   10.9009 C.3     1  UNL1        0.0897
     39 C          66.1963   92.8569   13.1218 C.3     1  UNL1        0.0897
@<TRIPOS>BOND
     1    12    13    1
     2    13     2    1
     3     2     3   ar
     4     3     4   ar
     5     4     5   ar
     6     5     6   ar
     7     6     7   ar
     8     7    14    1
     9    14    15    3
    10     7     8   ar
    11     8     9   ar
    12     9    10   ar
    13    10    11   ar
    14     1    11    1
    15     1    16    1
    16    16    17   ar
    17    17    18   ar
    18    18    19   ar
    19    19    20   ar
    20    20    21    1
    21    20    22   ar
    22     1    23    1
    23    23    24    1
    24    23    35    1
    25    35    36    1
    26    36    37    1
    27    37    38    1
    28    37    39    1
    29    23    26    1
    30    26    27   ar
    31    27    28   ar
    32    28    29   ar
    33    29    30   ar
    34    30    31   ar
    35    31    32   ar
    36    32    33   ar
    37    33    34   ar
    38    11     2   ar
    39    22    16   ar
    40    34    26   ar
    41     9     4   ar
    42    34    30   ar
    43    24    25    1
