@<TRIPOS>MOLECULE
*****
 18 19 0 0 0
SMALL
GASTEIGER

@<TRIPOS>ATOM
      1 C          64.9985   91.6231   12.6838 C.ar    1  UNL1        0.0608
      2 C          63.9140   90.7620   13.2603 C.ar    1  UNL1        0.1071
      3 N          62.7460   90.3576   12.4105 N.ar    1  UNL1       -0.2417
      4 C          62.6624   90.8143   10.9842 C.ar    1  UNL1        0.0989
      5 C          63.7468   91.6755   10.4077 C.ar    1  UNL1        0.0213
      6 C          64.9149   92.0799   11.2575 C.ar    1  UNL1        0.0108
      7 C          65.9994   92.9411   10.6810 C.ar    1  UNL1        0.0038
      8 C          67.2077   92.3081   10.0570 C.ar    1  UNL1        0.0207
      9 C          68.2921   93.1692    9.4805 C.ar    1  UNL1        0.0989
     10 N          68.1683   94.6634    9.5279 N.ar    1  UNL1       -0.2423
     11 C          66.9599   95.2964   10.1518 C.ar    1  UNL1        0.0989
     12 C          65.8755   94.4352   10.7283 C.ar    1  UNL1        0.0207
     13 C          67.3346   92.4319   14.3834 C.1     1  UNL1       -0.0689
     14 C          66.1665   92.0275   13.5336 C.1     1  UNL1       -0.0614
     15 N          68.4529   94.1139   16.0174 N.3     1  UNL1       -0.3102
     16 C          68.5026   92.8363   15.2332 C.3     1  UNL1        0.1432
     17 H          69.3247   94.2300   16.5340 H       1  UNL1        0.1198
     18 H          67.6715   94.0808   16.6722 H       1  UNL1        0.1198
@<TRIPOS>BOND
     1    15    16    1
     2    16    13    1
     3    13    14    3
     4    14     1    1
     5     1     2   ar
     6     2     3   ar
     7     3     4   ar
     8     4     5   ar
     9     5     6   ar
    10     6     7    1
    11     7     8   ar
    12     8     9   ar
    13     9    10   ar
    14    10    11   ar
    15    11    12   ar
    16     6     1   ar
    17    12     7   ar
    18    15    17    1
    19    15    18    1
@<TRIPOS>MOLECULE
*****
 18 19 0 0 0
SMALL
GASTEIGER

@<TRIPOS>ATOM
      1 C          64.2264   90.9029   12.7848 C.ar    1  UNL1        0.0608
      2 C          64.7443   92.0803   12.0132 C.ar    1  UNL1        0.1071
      3 N          65.8056   92.9583   12.6072 N.ar    1  UNL1       -0.2417
      4 C          66.3490   92.6589   13.9728 C.ar    1  UNL1        0.0989
      5 C          65.8312   91.4814   14.7444 C.ar    1  UNL1        0.0213
      6 C          64.7699   90.6034   14.1504 C.ar    1  UNL1        0.0108
      7 C          64.2521   89.4259   14.9221 C.ar    1  UNL1        0.0038
      8 C          63.4129   89.6420   16.1465 C.ar    1  UNL1        0.0207
      9 C          62.8951   88.4646   16.9182 C.ar    1  UNL1        0.0989
     10 N          63.2165   87.0710   16.4655 N.ar    1  UNL1       -0.2423
     11 C          64.0557   86.8550   15.2412 C.ar    1  UNL1        0.0989
     12 C          64.5736   88.0325   14.4695 C.ar    1  UNL1        0.0207
     13 C          62.1039   89.1469   11.5969 C.1     1  UNL1       -0.0689
     14 C          63.1652   90.0249   12.1908 C.1     1  UNL1       -0.0614
     15 N          59.7134   88.1331   11.6846 N.3     1  UNL1       -0.3102
     16 C          61.0426   88.2689   11.0029 C.3     1  UNL1        0.1432
     17 H          59.1185   87.5026   11.1471 H       1  UNL1        0.1198
     18 H          59.2686   89.0488   11.7480 H       1  UNL1        0.1198
@<TRIPOS>BOND
     1    15    16    1
     2    16    13    1
     3    13    14    3
     4    14     1    1
     5     1     2   ar
     6     2     3   ar
     7     3     4   ar
     8     4     5   ar
     9     5     6   ar
    10     6     7    1
    11     7     8   ar
    12     8     9   ar
    13     9    10   ar
    14    10    11   ar
    15    11    12   ar
    16     6     1   ar
    17    12     7   ar
    18    15    17    1
    19    15    18    1
@<TRIPOS>MOLECULE
*****
 18 19 0 0 0
SMALL
GASTEIGER

@<TRIPOS>ATOM
      1 C          63.5342   83.8033   13.4798 C.ar    1  UNL1        0.0608
      2 C          63.8168   82.7429   14.5023 C.ar    1  UNL1        0.1071
      3 N          63.5452   81.3025   14.1839 N.ar    1  UNL1       -0.2417
      4 C          62.9909   80.9225   12.8429 C.ar    1  UNL1        0.0989
      5 C          62.7082   81.9829   11.8204 C.ar    1  UNL1        0.0213
      6 C          62.9799   83.4234   12.1389 C.ar    1  UNL1        0.0108
      7 C          62.6972   84.4838   11.1163 C.ar    1  UNL1        0.0038
      8 C          63.3368   84.4089    9.7616 C.ar    1  UNL1        0.0207
      9 C          63.0542   85.4692    8.7390 C.ar    1  UNL1        0.0989
     10 N          62.1319   86.6046    9.0711 N.ar    1  UNL1       -0.2423
     11 C          61.4922   86.6796   10.4258 C.ar    1  UNL1        0.0989
     12 C          61.7749   85.6191   11.4484 C.ar    1  UNL1        0.0207
     13 C          64.0775   86.6841   14.1168 C.1     1  UNL1       -0.0689
     14 C          63.8058   85.2437   13.7983 C.1     1  UNL1       -0.0614
     15 N          63.5475   88.8228   15.4935 N.3     1  UNL1       -0.3102
     16 C          64.3491   88.1245   14.4353 C.3     1  UNL1        0.1432
     17 H          63.8636   89.7889   15.5775 H       1  UNL1        0.1198
     18 H          63.6733   88.3451   16.3859 H       1  UNL1        0.1198
@<TRIPOS>BOND
     1    15    16    1
     2    16    13    1
     3    13    14    3
     4    14     1    1
     5     1     2   ar
     6     2     3   ar
     7     3     4   ar
     8     4     5   ar
     9     5     6   ar
    10     6     7    1
    11     7     8   ar
    12     8     9   ar
    13     9    10   ar
    14    10    11   ar
    15    11    12   ar
    16     6     1   ar
    17    12     7   ar
    18    15    17    1
    19    15    18    1
@<TRIPOS>MOLECULE
*****
 18 19 0 0 0
SMALL
GASTEIGER

@<TRIPOS>ATOM
      1 C          61.1272   88.1074    9.6656 C.ar    1  UNL1        0.0608
      2 C          60.2654   89.0728    8.9073 C.ar    1  UNL1        0.1071
      3 N          59.4139   88.5865    7.7722 N.ar    1  UNL1       -0.2417
      4 C          59.4242   87.1346    7.3955 C.ar    1  UNL1        0.0989
      5 C          60.2861   86.1692    8.1538 C.ar    1  UNL1        0.0213
      6 C          61.1376   86.6556    9.2889 C.ar    1  UNL1        0.0108
      7 C          61.9994   85.6900   10.0472 C.ar    1  UNL1        0.0038
      8 C          61.8435   85.5524   11.5327 C.ar    1  UNL1        0.0207
      9 C          62.7053   84.5869   12.2910 C.ar    1  UNL1        0.0989
     10 N          63.7231   83.7590   11.5638 N.ar    1  UNL1       -0.2423
     11 C          63.8790   83.8966   10.0783 C.ar    1  UNL1        0.0989
     12 C          63.0172   84.8622    9.3200 C.ar    1  UNL1        0.0207
     13 C          62.8301   89.0802   11.9358 C.1     1  UNL1       -0.0689
     14 C          61.9787   88.5938   10.8007 C.1     1  UNL1       -0.0614
     15 N          63.1154   90.5254   14.0759 N.3     1  UNL1       -0.3102
     16 C          63.6816   89.5665   13.0709 C.3     1  UNL1        0.1432
     17 H          63.8270   90.7478   14.7720 H       1  UNL1        0.1198
     18 H          62.3109   90.0997   14.5362 H       1  UNL1        0.1198
@<TRIPOS>BOND
     1    15    16    1
     2    16    13    1
     3    13    14    3
     4    14     1    1
     5     1     2   ar
     6     2     3   ar
     7     3     4   ar
     8     4     5   ar
     9     5     6   ar
    10     6     7    1
    11     7     8   ar
    12     8     9   ar
    13     9    10   ar
    14    10    11   ar
    15    11    12   ar
    16     6     1   ar
    17    12     7   ar
    18    15    17    1
    19    15    18    1
@<TRIPOS>MOLECULE
*****
 18 19 0 0 0
SMALL
GASTEIGER

@<TRIPOS>ATOM
      1 C          64.3142   91.1576   13.0884 C.ar    1  UNL1        0.0608
      2 C          65.4195   92.1660   13.1957 C.ar    1  UNL1        0.1071
      3 N          65.8279   92.9621   11.9918 N.ar    1  UNL1       -0.2417
      4 C          65.1310   92.7499   10.6806 C.ar    1  UNL1        0.0989
      5 C          64.0257   91.7415   10.5733 C.ar    1  UNL1        0.0213
      6 C          63.6173   90.9454   11.7773 C.ar    1  UNL1        0.0108
      7 C          62.5120   89.9370   11.6699 C.ar    1  UNL1        0.0038
      8 C          61.0821   90.3775   11.7757 C.ar    1  UNL1        0.0207
      9 C          59.9768   89.3692   11.6684 C.ar    1  UNL1        0.0989
     10 N          60.3014   87.9202   11.4553 N.ar    1  UNL1       -0.2423
     11 C          61.7313   87.4797   11.3495 C.ar    1  UNL1        0.0989
     12 C          62.8367   88.4881   11.4569 C.ar    1  UNL1        0.0207
     13 C          63.4975   89.5654   15.4963 C.1     1  UNL1       -0.0689
     14 C          63.9058   90.3615   14.2924 C.1     1  UNL1       -0.0614
     15 N          63.0715   87.2707   16.6377 N.3     1  UNL1       -0.3102
     16 C          63.0891   88.7693   16.7002 C.3     1  UNL1        0.1432
     17 H          62.7717   86.8964   17.5379 H       1  UNL1        0.1198
     18 H          64.0078   86.9284   16.4220 H       1  UNL1        0.1198
@<TRIPOS>BOND
     1    15    16    1
     2    16    13    1
     3    13    14    3
     4    14     1    1
     5     1     2   ar
     6     2     3   ar
     7     3     4   ar
     8     4     5   ar
     9     5     6   ar
    10     6     7    1
    11     7     8   ar
    12     8     9   ar
    13     9    10   ar
    14    10    11   ar
    15    11    12   ar
    16     6     1   ar
    17    12     7   ar
    18    15    17    1
    19    15    18    1
@<TRIPOS>MOLECULE
*****
 18 19 0 0 0
SMALL
GASTEIGER

@<TRIPOS>ATOM
      1 C          64.6716   91.5629   12.5642 C.ar    1  UNL1        0.0608
      2 C          63.3788   90.9220   12.1545 C.ar    1  UNL1        0.1071
      3 N          62.6588   90.0117   13.1047 N.ar    1  UNL1       -0.2417
      4 C          63.2315   89.7423   14.4646 C.ar    1  UNL1        0.0989
      5 C          64.5243   90.3832   14.8743 C.ar    1  UNL1        0.0213
      6 C          65.2444   91.2935   13.9241 C.ar    1  UNL1        0.0108
      7 C          66.5372   91.9344   14.3338 C.ar    1  UNL1        0.0038
      8 C          67.7998   91.6197   13.5876 C.ar    1  UNL1        0.0207
      9 C          69.0927   92.2606   13.9973 C.ar    1  UNL1        0.0989
     10 N          69.1229   93.2162   15.1532 N.ar    1  UNL1       -0.2423
     11 C          67.8603   93.5308   15.8994 C.ar    1  UNL1        0.0989
     12 C          66.5674   92.8899   15.4896 C.ar    1  UNL1        0.0207
     13 C          66.1117   93.3834   10.6637 C.1     1  UNL1       -0.0689
     14 C          65.3917   92.4731   11.6140 C.1     1  UNL1       -0.0614
     15 N          68.3219   94.2004    9.5693 N.3     1  UNL1       -0.3102
     16 C          66.8318   94.2937    9.7135 C.3     1  UNL1        0.1432
     17 H          68.6411   94.8876    8.8866 H       1  UNL1        0.1198
     18 H          68.5749   93.2642    9.2532 H       1  UNL1        0.1198
@<TRIPOS>BOND
     1    15    16    1
     2    16    13    1
     3    13    14    3
     4    14     1    1
     5     1     2   ar
     6     2     3   ar
     7     3     4   ar
     8     4     5   ar
     9     5     6   ar
    10     6     7    1
    11     7     8   ar
    12     8     9   ar
    13     9    10   ar
    14    10    11   ar
    15    11    12   ar
    16     6     1   ar
    17    12     7   ar
    18    15    17    1
    19    15    18    1
@<TRIPOS>MOLECULE
*****
 18 19 0 0 0
SMALL
GASTEIGER

@<TRIPOS>ATOM
      1 C          62.6489   87.8438   11.5083 C.ar    1  UNL1        0.0608
      2 C          63.3112   88.7583   12.4956 C.ar    1  UNL1        0.1071
      3 N          63.3135   90.2399   12.2612 N.ar    1  UNL1       -0.2417
      4 C          62.6535   90.8069   11.0394 C.ar    1  UNL1        0.0989
      5 C          61.9911   89.8924   10.0521 C.ar    1  UNL1        0.0213
      6 C          61.9888   88.4108   10.2866 C.ar    1  UNL1        0.0108
      7 C          61.3264   87.4962    9.2991 C.ar    1  UNL1        0.0038
      8 C          59.8654   87.6509    8.9967 C.ar    1  UNL1        0.0207
      9 C          59.2030   86.7364    8.0093 C.ar    1  UNL1        0.0989
     10 N          60.0016   85.6672    7.3244 N.ar    1  UNL1       -0.2423
     11 C          61.4626   85.5125    7.6269 C.ar    1  UNL1        0.0989
     12 C          62.1250   86.4271    8.6143 C.ar    1  UNL1        0.0207
     13 C          62.6443   84.8807   11.9772 C.1     1  UNL1       -0.0689
     14 C          62.6466   86.3622   11.7428 C.1     1  UNL1       -0.0614
     15 N          62.5705   82.8611   13.6100 N.3     1  UNL1       -0.3102
     16 C          62.6420   83.3991   12.2116 C.3     1  UNL1        0.1432
     17 H          62.5790   81.8415   13.5829 H       1  UNL1        0.1198
     18 H          61.7103   83.1822   14.0542 H       1  UNL1        0.1198
@<TRIPOS>BOND
     1    15    16    1
     2    16    13    1
     3    13    14    3
     4    14     1    1
     5     1     2   ar
     6     2     3   ar
     7     3     4   ar
     8     4     5   ar
     9     5     6   ar
    10     6     7    1
    11     7     8   ar
    12     8     9   ar
    13     9    10   ar
    14    10    11   ar
    15    11    12   ar
    16     6     1   ar
    17    12     7   ar
    18    15    17    1
    19    15    18    1
@<TRIPOS>MOLECULE
*****
 18 19 0 0 0
SMALL
GASTEIGER

@<TRIPOS>ATOM
      1 C          63.4964   85.8539   13.2863 C.ar    1  UNL1        0.0608
      2 C          64.0569   85.3462   14.5817 C.ar    1  UNL1        0.1071
      3 N          64.0609   83.8745   14.8717 N.ar    1  UNL1       -0.2417
      4 C          63.5043   82.9105   13.8663 C.ar    1  UNL1        0.0989
      5 C          62.9438   83.4182   12.5709 C.ar    1  UNL1        0.0213
      6 C          62.9399   84.8899   12.2809 C.ar    1  UNL1        0.0108
      7 C          62.3793   85.3975   10.9855 C.ar    1  UNL1        0.0038
      8 C          61.1619   86.2739   10.9872 C.ar    1  UNL1        0.0207
      9 C          60.6014   86.7815    9.6919 C.ar    1  UNL1        0.0989
     10 N          61.2582   86.4129    8.3947 N.ar    1  UNL1       -0.2423
     11 C          62.4756   85.5365    8.3929 C.ar    1  UNL1        0.0989
     12 C          63.0362   85.0289    9.6884 C.ar    1  UNL1        0.0207
     13 C          63.4885   88.7973   12.7064 C.1     1  UNL1       -0.0689
     14 C          63.4925   87.3256   12.9964 C.1     1  UNL1       -0.0614
     15 N          63.4154   91.2554   13.5443 N.3     1  UNL1       -0.3102
     16 C          63.4846   90.2690   12.4164 C.3     1  UNL1        0.1432
     17 H          63.4224   92.2034   13.1678 H       1  UNL1        0.1198
     18 H          64.2201   91.1273   14.1578 H       1  UNL1        0.1198
@<TRIPOS>BOND
     1    15    16    1
     2    16    13    1
     3    13    14    3
     4    14     1    1
     5     1     2   ar
     6     2     3   ar
     7     3     4   ar
     8     4     5   ar
     9     5     6   ar
    10     6     7    1
    11     7     8   ar
    12     8     9   ar
    13     9    10   ar
    14    10    11   ar
    15    11    12   ar
    16     6     1   ar
    17    12     7   ar
    18    15    17    1
    19    15    18    1
@<TRIPOS>MOLECULE
*****
 18 19 0 0 0
SMALL
GASTEIGER

@<TRIPOS>ATOM
      1 C          62.9721   86.5978   12.1128 C.ar    1  UNL1        0.0608
      2 C          63.1603   87.9980   12.6168 C.ar    1  UNL1        0.1071
      3 N          63.8803   88.2390   13.9104 N.ar    1  UNL1       -0.2417
      4 C          64.4122   87.0799   14.7000 C.ar    1  UNL1        0.0989
      5 C          64.2241   85.6797   14.1960 C.ar    1  UNL1        0.0213
      6 C          63.5040   85.4387   12.9024 C.ar    1  UNL1        0.0108
      7 C          63.3159   84.0384   12.3984 C.ar    1  UNL1        0.0038
      8 C          62.4928   83.0623   13.1855 C.ar    1  UNL1        0.0207
      9 C          62.3047   81.6621   12.6816 C.ar    1  UNL1        0.0989
     10 N          62.9396   81.2380   11.3904 N.ar    1  UNL1       -0.2423
     11 C          63.7627   82.2141   10.6032 C.ar    1  UNL1        0.0989
     12 C          63.9508   83.6144   11.1072 C.ar    1  UNL1        0.0207
     13 C          61.5320   86.1157    9.5256 C.1     1  UNL1       -0.0689
     14 C          62.2521   86.3567   10.8192 C.1     1  UNL1       -0.0614
     15 N          59.3918   86.3289    8.0681 N.3     1  UNL1       -0.3102
     16 C          60.8120   85.8746    8.2320 C.3     1  UNL1        0.1432
     17 H          59.0626   86.0852    7.1340 H       1  UNL1        0.1198
     18 H          59.3417   87.3399    8.1934 H       1  UNL1        0.1198
@<TRIPOS>BOND
     1    15    16    1
     2    16    13    1
     3    13    14    3
     4    14     1    1
     5     1     2   ar
     6     2     3   ar
     7     3     4   ar
     8     4     5   ar
     9     5     6   ar
    10     6     7    1
    11     7     8   ar
    12     8     9   ar
    13     9    10   ar
    14    10    11   ar
    15    11    12   ar
    16     6     1   ar
    17    12     7   ar
    18    15    17    1
    19    15    18    1
