@<TRIPOS>MOLECULE
*****
 35 39 0 0 0
SMALL
GASTEIGER

@<TRIPOS>ATOM
      1 C          63.1427   89.6118   12.5680 C.2     1  UNL1        0.0650
      2 N          63.9003   90.1588   13.7414 N.2     1  UNL1       -0.1565
      3 N          64.4906   89.0020   14.4921 N.2     1  UNL1       -0.1479
      4 C          64.0978   87.7401   13.7826 C.2     1  UNL1        0.1409
      5 C          63.2647   88.1170   12.5935 C.3     1  UNL1        0.1071
      6 C          62.8719   86.8551   11.8840 C.3     1  UNL1        0.1164
      7 N          63.4622   85.6983   12.6347 N.am    1  UNL1       -0.2510
      8 C          64.2198   86.2453   13.8081 C.2     1  UNL1        0.2687
      9 O          64.9681   85.4390   14.8279 O.2     1  UNL1       -0.2682
     10 C          62.0357   86.7657   10.6420 C.ar    1  UNL1        0.0308
     11 C          62.6217   86.1998    9.3825 C.ar    1  UNL1        0.0004
     12 C          61.7855   86.1103    8.1403 C.ar    1  UNL1       -0.0001
     13 C          60.3632   86.5867    8.1578 C.ar    1  UNL1        0.0031
     14 C          59.7772   87.1526    9.4173 C.ar    1  UNL1        0.0366
     15 C          60.6134   87.2420   10.6594 C.ar    1  UNL1        0.1362
     16 O          60.0274   87.8079   11.9189 O.3     1  UNL1       -0.4730
     17 C          58.7997   88.6674   11.8548 C.3     1  UNL1        0.2370
     18 C          57.9665   88.8779   13.0842 C.3     1  UNL1        0.1847
     19 O          56.5486   88.3898   13.1219 O.3     1  UNL1       -0.3784
     20 H          56.0184   88.8868   12.4794 H       1  UNL1        0.2106
     21 C          63.3198   84.2491   12.2751 C.ar    1  UNL1        0.0544
     22 C          64.0111   83.7065   11.0595 C.ar    1  UNL1        0.0150
     23 C          63.8688   82.2572   10.6999 C.ar    1  UNL1        0.0029
     24 C          63.0351   81.3505   11.5559 C.ar    1  UNL1        0.0210
     25 C          62.3438   81.8931   12.7716 C.ar    1  UNL1        0.0029
     26 C          62.4861   83.3423   13.1311 C.ar    1  UNL1        0.0150
     27 C          62.8927   79.9012   11.1963 C.ar    1  UNL1        0.1231
     28 C          63.0038   79.3197    9.8181 C.ar    1  UNL1        0.0658
     29 C          62.7940   77.8381    9.9219 C.ar    1  UNL1        0.2138
     30 O          62.5532   77.5039   11.3643 O.2     1  UNL1       -0.3502
     31 N          62.6142   78.7790   12.1519 N.ar    1  UNL1       -0.0768
     32 C          61.2311   90.5281   12.4887 C.3     1  UNL1        0.0057
     33 C          62.3944   90.4181   11.5482 C.3     1  UNL1        0.0338
     34 C          63.5578   90.3081   10.6077 C.3     1  UNL1        0.0057
     35 C          61.6462   91.2244   10.5284 C.3     1  UNL1        0.0057
@<TRIPOS>BOND
     1    32    33    1
     2    33    34    1
     3    33    35    1
     4    33     1    1
     5     1     2    2
     6     2     3    1
     7     3     4    2
     8     4     5    1
     9     5     6    1
    10     6    10    1
    11    10    11   ar
    12    11    12   ar
    13    12    13   ar
    14    13    14   ar
    15    14    15   ar
    16    15    16    1
    17    16    17    1
    18    17    18    1
    19    18    19    1
    20     6     7    1
    21     7    21    1
    22    21    22   ar
    23    22    23   ar
    24    23    24   ar
    25    24    27    1
    26    27    28   ar
    27    28    29   ar
    28    29    30   ar
    29    30    31   ar
    30    24    25   ar
    31    25    26   ar
    32     7     8   am
    33     8     9    2
    34     5     1    1
    35    15    10   ar
    36    26    21   ar
    37     8     4    1
    38    31    27   ar
    39    19    20    1
@<TRIPOS>MOLECULE
*****
 35 39 0 0 0
SMALL
GASTEIGER

@<TRIPOS>ATOM
      1 C          63.7746   90.5313   12.1166 C.2     1  UNL1        0.0650
      2 N          64.5807   91.2720   13.1420 N.2     1  UNL1       -0.1565
      3 N          64.9322   90.3104   14.2384 N.2     1  UNL1       -0.1479
      4 C          64.3433   88.9754   13.8905 C.2     1  UNL1        0.1409
      5 C          63.6279   89.1120   12.5791 C.3     1  UNL1        0.1071
      6 C          63.0390   87.7770   12.2312 C.3     1  UNL1        0.1164
      7 N          63.3905   86.8154   13.3275 N.am    1  UNL1       -0.2510
      8 C          64.1966   87.5561   14.3530 C.2     1  UNL1        0.2687
      9 O          64.7574   86.9788   15.6188 O.2     1  UNL1       -0.2682
     10 C          62.2391   87.4593   11.0027 C.ar    1  UNL1        0.0308
     11 C          62.9292   86.9685    9.7646 C.ar    1  UNL1        0.0004
     12 C          62.1293   86.6508    8.5360 C.ar    1  UNL1       -0.0001
     13 C          60.6394   86.8239    8.5456 C.ar    1  UNL1        0.0031
     14 C          59.9493   87.3147    9.7837 C.ar    1  UNL1        0.0366
     15 C          60.7492   87.6324   11.0123 C.ar    1  UNL1        0.1362
     16 O          60.0591   88.1232   12.2504 O.3     1  UNL1       -0.4730
     17 C          58.8367   88.9850   12.1361 C.3     1  UNL1        0.2370
     18 C          57.6882   88.7865   13.0802 C.3     1  UNL1        0.1847
     19 O          57.9125   88.1180   14.4042 O.3     1  UNL1       -0.3784
     20 H          58.1661   87.1928   14.2604 H       1  UNL1        0.2106
     21 C          63.0037   85.3674   13.3878 C.ar    1  UNL1        0.0544
     22 C          62.5538   84.7647   14.6855 C.ar    1  UNL1        0.0150
     23 C          62.1670   83.3166   14.7459 C.ar    1  UNL1        0.0029
     24 C          62.2302   82.4713   13.5083 C.ar    1  UNL1        0.0210
     25 C          62.6802   83.0741   12.2105 C.ar    1  UNL1        0.0029
     26 C          63.0669   84.5220   12.1502 C.ar    1  UNL1        0.0150
     27 C          61.8435   81.0233   13.5686 C.ar    1  UNL1        0.1231
     28 C          60.5698   80.4739   14.1394 C.ar    1  UNL1        0.0658
     29 C          60.6017   78.9815   13.9921 C.ar    1  UNL1        0.2138
     30 O          61.8951   78.6085   13.3303 O.2     1  UNL1       -0.3502
     31 N          62.6626   79.8704   13.0685 N.ar    1  UNL1       -0.0768
     32 C          61.8337   90.7058   11.2786 C.3     1  UNL1        0.0057
     33 C          63.2138   91.1086   10.8508 C.3     1  UNL1        0.0338
     34 C          64.5939   91.5114   10.4230 C.3     1  UNL1        0.0057
     35 C          62.6529   91.6859    9.5850 C.3     1  UNL1        0.0057
@<TRIPOS>BOND
     1    32    33    1
     2    33    34    1
     3    33    35    1
     4    33     1    1
     5     1     2    2
     6     2     3    1
     7     3     4    2
     8     4     5    1
     9     5     6    1
    10     6    10    1
    11    10    11   ar
    12    11    12   ar
    13    12    13   ar
    14    13    14   ar
    15    14    15   ar
    16    15    16    1
    17    16    17    1
    18    17    18    1
    19    18    19    1
    20     6     7    1
    21     7    21    1
    22    21    22   ar
    23    22    23   ar
    24    23    24   ar
    25    24    27    1
    26    27    28   ar
    27    28    29   ar
    28    29    30   ar
    29    30    31   ar
    30    24    25   ar
    31    25    26   ar
    32     7     8   am
    33     8     9    2
    34     5     1    1
    35    15    10   ar
    36    26    21   ar
    37     8     4    1
    38    31    27   ar
    39    19    20    1
@<TRIPOS>MOLECULE
*****
 35 39 0 0 0
SMALL
GASTEIGER

@<TRIPOS>ATOM
      1 C          60.8341   94.9373   -6.4690 C.2     1  UNL1        0.0650
      2 N          59.7268   94.6131   -7.4274 N.2     1  UNL1       -0.1565
      3 N          58.6480   93.9015   -6.6659 N.2     1  UNL1       -0.1479
      4 C          59.0886   93.7860   -5.2367 C.2     1  UNL1        0.1409
      5 C          60.4397   94.4261   -5.1150 C.3     1  UNL1        0.1071
      6 C          60.8803   94.3105   -3.6859 C.3     1  UNL1        0.1164
      7 N          59.8015   93.5990   -2.9243 N.am    1  UNL1       -0.2510
      8 C          58.6941   93.2748   -3.8828 C.2     1  UNL1        0.2687
      9 O          57.4167   92.5642   -3.5464 O.2     1  UNL1       -0.2682
     10 C          62.1727   94.8175   -3.1179 C.ar    1  UNL1        0.0308
     11 C          62.1642   95.9256   -2.1070 C.ar    1  UNL1        0.0004
     12 C          63.4567   96.4326   -1.5390 C.ar    1  UNL1       -0.0001
     13 C          64.7576   95.8314   -1.9820 C.ar    1  UNL1        0.0031
     14 C          64.7661   94.7233   -2.9929 C.ar    1  UNL1        0.0366
     15 C          63.4736   94.2163   -3.5609 C.ar    1  UNL1        0.1362
     16 O          63.4821   93.1082   -4.5718 O.3     1  UNL1       -0.4730
     17 C          64.7769   92.4593   -4.9626 C.3     1  UNL1        0.2370
     18 C          64.9023   91.7767   -6.2923 C.3     1  UNL1        0.1847
     19 O          66.1259   91.9912   -7.1331 O.3     1  UNL1       -0.3784
     20 H          66.1617   92.9166   -7.4217 H       1  UNL1        0.2106
     21 C          59.8258   93.2695   -1.4612 C.ar    1  UNL1        0.0544
     22 C          58.6750   93.6650   -0.5841 C.ar    1  UNL1        0.0150
     23 C          58.6992   93.3355    0.8791 C.ar    1  UNL1        0.0029
     24 C          59.8743   92.6105    1.4652 C.ar    1  UNL1        0.0210
     25 C          61.0252   92.2151    0.5881 C.ar    1  UNL1        0.0029
     26 C          61.0009   92.5445   -0.8750 C.ar    1  UNL1        0.0150
     27 C          59.8986   92.2810    2.9284 C.ar    1  UNL1        0.1231
     28 C          61.0721   91.7418    3.6913 C.ar    1  UNL1        0.0658
     29 C          60.6524   91.5605    5.1199 C.ar    1  UNL1        0.2138
     30 O          59.2195   91.9876    5.2399 O.2     1  UNL1       -0.3502
     31 N          58.7536   92.4329    3.8854 N.ar    1  UNL1       -0.0768
     32 C          62.5848   94.4404   -7.5590 C.3     1  UNL1        0.0057
     33 C          62.1115   95.6479   -6.8053 C.3     1  UNL1        0.0338
     34 C          61.6383   96.8554   -6.0517 C.3     1  UNL1        0.0057
     35 C          63.3890   96.3585   -7.1417 C.3     1  UNL1        0.0057
@<TRIPOS>BOND
     1    32    33    1
     2    33    34    1
     3    33    35    1
     4    33     1    1
     5     1     2    2
     6     2     3    1
     7     3     4    2
     8     4     5    1
     9     5     6    1
    10     6    10    1
    11    10    11   ar
    12    11    12   ar
    13    12    13   ar
    14    13    14   ar
    15    14    15   ar
    16    15    16    1
    17    16    17    1
    18    17    18    1
    19    18    19    1
    20     6     7    1
    21     7    21    1
    22    21    22   ar
    23    22    23   ar
    24    23    24   ar
    25    24    27    1
    26    27    28   ar
    27    28    29   ar
    28    29    30   ar
    29    30    31   ar
    30    24    25   ar
    31    25    26   ar
    32     7     8   am
    33     8     9    2
    34     5     1    1
    35    15    10   ar
    36    26    21   ar
    37     8     4    1
    38    31    27   ar
    39    19    20    1
@<TRIPOS>MOLECULE
*****
 35 39 0 0 0
SMALL
GASTEIGER

@<TRIPOS>ATOM
      1 C          62.5479   82.4290   14.2910 C.2     1  UNL1        0.0650
      2 N          62.4174   82.0264   15.7301 N.2     1  UNL1       -0.1565
      3 N          62.6758   83.2382   16.5756 N.2     1  UNL1       -0.1479
      4 C          62.9660   84.3896   15.6591 C.2     1  UNL1        0.1409
      5 C          62.8869   83.8895   14.2472 C.3     1  UNL1        0.1071
      6 C          63.1771   85.0409   13.3306 C.3     1  UNL1        0.1164
      7 N          63.4355   86.2527   14.1761 N.am    1  UNL1       -0.2510
      8 C          63.3050   85.8501   15.6153 C.2     1  UNL1        0.2687
      9 O          63.4825   86.7501   16.8021 O.2     1  UNL1       -0.2682
     10 C          63.2041   84.9897   11.8318 C.ar    1  UNL1        0.0308
     11 C          64.2468   84.1727   11.1280 C.ar    1  UNL1        0.0004
     12 C          64.2739   84.1214    9.6290 C.ar    1  UNL1       -0.0001
     13 C          63.2582   84.8871    8.8339 C.ar    1  UNL1        0.0031
     14 C          62.2155   85.7041    9.5377 C.ar    1  UNL1        0.0366
     15 C          62.1885   85.7554   11.0367 C.ar    1  UNL1        0.1362
     16 O          61.1458   86.5724   11.7405 O.3     1  UNL1       -0.4730
     17 C          60.2793   87.5158   10.9600 C.3     1  UNL1        0.2370
     18 C          59.7518   88.7609   11.6093 C.3     1  UNL1        0.1847
     19 O          58.8262   88.6590   12.7853 O.3     1  UNL1       -0.3784
     20 H          57.9899   88.2556   12.5046 H       1  UNL1        0.2106
     21 C          63.7663   87.6258   13.6713 C.ar    1  UNL1        0.0544
     22 C          64.6034   88.5500   14.5050 C.ar    1  UNL1        0.0150
     23 C          64.9342   89.9233   14.0001 C.ar    1  UNL1        0.0029
     24 C          64.4279   90.3723   12.6615 C.ar    1  UNL1        0.0210
     25 C          63.5907   89.4480   11.8277 C.ar    1  UNL1        0.0029
     26 C          63.2600   88.0749   12.3326 C.ar    1  UNL1        0.0150
     27 C          64.7587   91.7455   12.1566 C.ar    1  UNL1        0.1231
     28 C          64.5812   92.2339   10.7495 C.ar    1  UNL1        0.0658
     29 C          65.0378   93.6616   10.6934 C.ar    1  UNL1        0.2138
     30 O          65.4975   94.0555   12.0658 O.2     1  UNL1       -0.3502
     31 N          65.3250   92.8712   12.9701 N.ar    1  UNL1       -0.0768
     32 C          60.9177   81.3700   13.4419 C.3     1  UNL1        0.0057
     33 C          62.3705   81.5290   13.1042 C.3     1  UNL1        0.0338
     34 C          63.8233   81.6880   12.7664 C.3     1  UNL1        0.0057
     35 C          62.1931   80.6290   11.9173 C.3     1  UNL1        0.0057
@<TRIPOS>BOND
     1    32    33    1
     2    33    34    1
     3    33    35    1
     4    33     1    1
     5     1     2    2
     6     2     3    1
     7     3     4    2
     8     4     5    1
     9     5     6    1
    10     6    10    1
    11    10    11   ar
    12    11    12   ar
    13    12    13   ar
    14    13    14   ar
    15    14    15   ar
    16    15    16    1
    17    16    17    1
    18    17    18    1
    19    18    19    1
    20     6     7    1
    21     7    21    1
    22    21    22   ar
    23    22    23   ar
    24    23    24   ar
    25    24    27    1
    26    27    28   ar
    27    28    29   ar
    28    29    30   ar
    29    30    31   ar
    30    24    25   ar
    31    25    26   ar
    32     7     8   am
    33     8     9    2
    34     5     1    1
    35    15    10   ar
    36    26    21   ar
    37     8     4    1
    38    31    27   ar
    39    19    20    1
