@<TRIPOS>MOLECULE
*****
 23 25 0 0 0
SMALL
GASTEIGER

@<TRIPOS>ATOM
      1 C          63.8751   90.2187   13.4425 C.3     1  UNL1        0.0838
      2 C          63.1081   89.8350   12.2119 C.3     1  UNL1        0.0437
      3 C          62.9970   88.3394   12.1825 C.ar    1  UNL1       -0.0247
      4 C          62.3501   87.4000   11.2083 C.ar    1  UNL1       -0.0045
      5 C          62.4016   85.9200   11.4466 C.ar    1  UNL1       -0.0003
      6 C          63.0999   85.3793   12.6590 C.ar    1  UNL1        0.0012
      7 C          63.7468   86.3187   13.6332 C.ar    1  UNL1       -0.0045
      8 C          63.6953   87.7988   13.3949 C.ar    1  UNL1       -0.0247
      9 C          64.2381   88.9603   14.1736 C.3     1  UNL1        0.0437
     10 C          63.1514   83.8992   12.8973 C.ar    1  UNL1        0.0192
     11 C          62.8509   82.9483   11.7769 C.ar    1  UNL1        0.0031
     12 C          62.9023   81.4682   12.0151 C.ar    1  UNL1        0.0207
     13 C          63.2544   80.9391   13.3738 C.ar    1  UNL1        0.0989
     14 N          63.5550   81.8901   14.4943 N.ar    1  UNL1       -0.2423
     15 C          63.5035   83.3701   14.2560 C.ar    1  UNL1        0.0988
     16 N          64.2189   91.6156   13.8673 N.3     1  UNL1       -0.1841
     17 H          64.0468   92.2188   13.0630 H       1  UNL1        0.1484
     18 S          65.6007   91.9317   14.3579 S.O2    1  UNL1        0.0390
     19 O          66.1307   91.7797   12.9629 O.2     1  UNL1       -0.1576
     20 O          65.0707   92.0838   15.7528 O.2     1  UNL1       -0.1576
     21 C          68.1709   91.9600   13.9796 C.3     1  UNL1        0.0270
     22 C          66.9826   92.2479   14.8484 C.3     1  UNL1        0.1457
     23 C          67.1760   92.8519   16.2077 C.3     1  UNL1        0.0270
@<TRIPOS>BOND
     1    21    22    1
     2    22    23    1
     3    22    18    1
     4    18    19    2
     5    18    20    2
     6    18    16    1
     7    16     1    1
     8     1     2    1
     9     2     3    1
    10     3     4   ar
    11     4     5   ar
    12     5     6   ar
    13     6    10    1
    14    10    11   ar
    15    11    12   ar
    16    12    13   ar
    17    13    14   ar
    18    14    15   ar
    19     6     7   ar
    20     7     8   ar
    21     8     9    1
    22     9     1    1
    23     8     3   ar
    24    15    10   ar
    25    16    17    1
@<TRIPOS>MOLECULE
*****
 23 25 0 0 0
SMALL
GASTEIGER

@<TRIPOS>ATOM
      1 C          63.5043   85.9505   16.0135 C.3     1  UNL1        0.0838
      2 C          63.0119   87.0623   16.8917 C.3     1  UNL1        0.0437
      3 C          63.4555   88.3616   16.2874 C.ar    1  UNL1       -0.0247
      4 C          63.2605   89.7859   16.7152 C.ar    1  UNL1       -0.0045
      5 C          63.8320   90.9014   15.8913 C.ar    1  UNL1       -0.0003
      6 C          64.5986   90.5926   14.6395 C.ar    1  UNL1        0.0012
      7 C          64.7937   89.1682   14.2117 C.ar    1  UNL1       -0.0045
      8 C          64.2221   88.0527   15.0356 C.ar    1  UNL1       -0.0247
      9 C          64.2523   86.5626   14.8664 C.3     1  UNL1        0.0437
     10 C          65.1702   91.7082   13.8156 C.ar    1  UNL1        0.0192
     11 C          64.7859   91.8476   12.3724 C.ar    1  UNL1        0.0031
     12 C          65.3575   92.9632   11.5484 C.ar    1  UNL1        0.0207
     13 C          66.3133   93.9393   12.1677 C.ar    1  UNL1        0.0989
     14 N          66.6976   93.7998   13.6110 N.ar    1  UNL1       -0.2423
     15 C          66.1261   92.6843   14.4349 C.ar    1  UNL1        0.0988
     16 N          63.2869   84.4840   16.2422 N.3     1  UNL1       -0.1841
     17 H          64.1681   84.1066   16.5906 H       1  UNL1        0.1484
     18 S          62.8575   83.6034   15.1064 S.O2    1  UNL1        0.0390
     19 O          64.0792   82.7554   15.3020 O.2     1  UNL1       -0.1576
     20 O          61.6357   84.4514   14.9109 O.2     1  UNL1       -0.1576
     21 C          62.7752   83.0955   12.5598 C.3     1  UNL1        0.0270
     22 C          62.4281   82.7227   13.9706 C.3     1  UNL1        0.1457
     23 C          61.6515   81.4692   14.2457 C.3     1  UNL1        0.0270
@<TRIPOS>BOND
     1    21    22    1
     2    22    23    1
     3    22    18    1
     4    18    19    2
     5    18    20    2
     6    18    16    1
     7    16     1    1
     8     1     2    1
     9     2     3    1
    10     3     4   ar
    11     4     5   ar
    12     5     6   ar
    13     6    10    1
    14    10    11   ar
    15    11    12   ar
    16    12    13   ar
    17    13    14   ar
    18    14    15   ar
    19     6     7   ar
    20     7     8   ar
    21     8     9    1
    22     9     1    1
    23     8     3   ar
    24    15    10   ar
    25    16    17    1
@<TRIPOS>MOLECULE
*****
 23 25 0 0 0
SMALL
GASTEIGER

@<TRIPOS>ATOM
      1 C          61.4488   89.7760   10.9973 C.3     1  UNL1        0.0838
      2 C          62.2452   90.6765   10.1002 C.3     1  UNL1        0.0437
      3 C          63.4217   91.1847   10.8797 C.ar    1  UNL1       -0.0247
      4 C          64.5471   92.1057   10.5120 C.ar    1  UNL1       -0.0045
      5 C          65.6034   92.4401   11.5232 C.ar    1  UNL1       -0.0003
      6 C          65.5342   91.8535   12.9020 C.ar    1  UNL1        0.0012
      7 C          64.4088   90.9326   13.2697 C.ar    1  UNL1       -0.0045
      8 C          63.3526   90.5981   12.2585 C.ar    1  UNL1       -0.0247
      9 C          62.1332   89.7275   12.3312 C.3     1  UNL1        0.0437
     10 C          66.5904   92.1880   13.9132 C.ar    1  UNL1        0.0192
     11 C          66.1985   92.5556   15.3137 C.ar    1  UNL1        0.0031
     12 C          67.2548   92.8901   16.3249 C.ar    1  UNL1        0.0207
     13 C          68.7030   92.8570   15.9356 C.ar    1  UNL1        0.0989
     14 N          69.0949   92.4894   14.5350 N.ar    1  UNL1       -0.2423
     15 C          68.0387   92.1549   13.5239 C.ar    1  UNL1        0.0988
     16 N          60.1892   89.0511   10.6258 N.3     1  UNL1       -0.1841
     17 H          59.8220   88.6400   11.4840 H       1  UNL1        0.1484
     18 S          60.2287   87.9548    9.6028 S.O2    1  UNL1        0.0390
     19 O          60.6822   86.9882   10.6563 O.2     1  UNL1       -0.1576
     20 O          59.7752   88.9214    8.5493 O.2     1  UNL1       -0.1576
     21 C          59.1032   86.6501    7.6583 C.3     1  UNL1        0.0270
     22 C          60.2682   86.8584    8.5799 C.3     1  UNL1        0.1457
     23 C          61.4728   85.9703    8.4785 C.3     1  UNL1        0.0270
@<TRIPOS>BOND
     1    21    22    1
     2    22    23    1
     3    22    18    1
     4    18    19    2
     5    18    20    2
     6    18    16    1
     7    16     1    1
     8     1     2    1
     9     2     3    1
    10     3     4   ar
    11     4     5   ar
    12     5     6   ar
    13     6    10    1
    14    10    11   ar
    15    11    12   ar
    16    12    13   ar
    17    13    14   ar
    18    14    15   ar
    19     6     7   ar
    20     7     8   ar
    21     8     9    1
    22     9     1    1
    23     8     3   ar
    24    15    10   ar
    25    16    17    1
@<TRIPOS>MOLECULE
*****
 23 25 0 0 0
SMALL
GASTEIGER

@<TRIPOS>ATOM
      1 C          62.3655   89.2451   11.6110 C.3     1  UNL1        0.0838
      2 C          63.1680   89.5979   12.8282 C.3     1  UNL1        0.0437
      3 C          64.0105   90.7940   12.4973 C.ar    1  UNL1       -0.0247
      4 C          64.9979   91.5812   13.3069 C.ar    1  UNL1       -0.0045
      5 C          65.7035   92.7548   12.6947 C.ar    1  UNL1       -0.0003
      6 C          65.4217   93.1412   11.2730 C.ar    1  UNL1        0.0012
      7 C          64.4344   92.3540   10.4634 C.ar    1  UNL1       -0.0045
      8 C          63.7288   91.1804   11.0756 C.ar    1  UNL1       -0.0247
      9 C          62.7121   90.2231   10.5279 C.3     1  UNL1        0.0437
     10 C          66.1273   94.3149   10.6609 C.ar    1  UNL1        0.0192
     11 C          66.9208   94.1389    9.4002 C.ar    1  UNL1        0.0031
     12 C          67.6264   95.3126    8.7880 C.ar    1  UNL1        0.0207
     13 C          67.5386   96.6622    9.4367 C.ar    1  UNL1        0.0989
     14 N          66.7451   96.8382   10.6974 N.ar    1  UNL1       -0.2423
     15 C          66.0395   95.6645   11.3095 C.ar    1  UNL1        0.0988
     16 N          61.3881   88.1130   11.4971 N.3     1  UNL1       -0.1841
     17 H          61.5719   87.4853   12.2798 H       1  UNL1        0.1484
     18 S          61.3626   87.2659   10.2595 S.O2    1  UNL1        0.0390
     19 O          60.1920   88.0509    9.7462 O.2     1  UNL1       -0.1576
     20 O          62.5332   86.4809   10.7727 O.2     1  UNL1       -0.1576
     21 C          60.0726   86.2934    8.2247 C.3     1  UNL1        0.0270
     22 C          61.3371   86.4187    9.0218 C.3     1  UNL1        0.1457
     23 C          62.5760   85.6970    8.5812 C.3     1  UNL1        0.0270
@<TRIPOS>BOND
     1    21    22    1
     2    22    23    1
     3    22    18    1
     4    18    19    2
     5    18    20    2
     6    18    16    1
     7    16     1    1
     8     1     2    1
     9     2     3    1
    10     3     4   ar
    11     4     5   ar
    12     5     6   ar
    13     6    10    1
    14    10    11   ar
    15    11    12   ar
    16    12    13   ar
    17    13    14   ar
    18    14    15   ar
    19     6     7   ar
    20     7     8   ar
    21     8     9    1
    22     9     1    1
    23     8     3   ar
    24    15    10   ar
    25    16    17    1
@<TRIPOS>MOLECULE
*****
 23 25 0 0 0
SMALL
GASTEIGER

@<TRIPOS>ATOM
      1 C          63.5254   84.9140   15.7967 C.3     1  UNL1        0.0838
      2 C          62.9575   85.9012   16.7729 C.3     1  UNL1        0.0437
      3 C          63.3436   87.2775   16.3181 C.ar    1  UNL1       -0.0247
      4 C          63.0650   88.6374   16.8864 C.ar    1  UNL1       -0.0045
      5 C          63.5929   89.8607   16.1974 C.ar    1  UNL1       -0.0003
      6 C          64.3995   89.7241   14.9401 C.ar    1  UNL1        0.0012
      7 C          64.6781   88.3642   14.3718 C.ar    1  UNL1       -0.0045
      8 C          64.1502   87.1409   15.0608 C.ar    1  UNL1       -0.0247
      9 C          64.2625   85.6802   14.7386 C.3     1  UNL1        0.0437
     10 C          64.9274   90.9475   14.2511 C.ar    1  UNL1        0.0192
     11 C          65.8983   91.8462   14.9579 C.ar    1  UNL1        0.0031
     12 C          66.4262   93.0696   14.2689 C.ar    1  UNL1        0.0207
     13 C          65.9832   93.3942   12.8731 C.ar    1  UNL1        0.0989
     14 N          65.0122   92.4955   12.1663 N.ar    1  UNL1       -0.2423
     15 C          64.4843   91.2721   12.8553 C.ar    1  UNL1        0.0988
     16 N          63.3815   83.4226   15.8664 N.3     1  UNL1       -0.1841
     17 H          64.3190   83.0420   15.9949 H       1  UNL1        0.1484
     18 S          62.7635   82.6745   14.7226 S.O2    1  UNL1        0.0390
     19 O          61.5651   83.5747   14.7812 O.2     1  UNL1       -0.1576
     20 O          63.9619   81.7743   14.6639 O.2     1  UNL1       -0.1576
     21 C          61.1034   80.8802   13.8424 C.3     1  UNL1        0.0270
     22 C          62.1454   81.9264   13.5787 C.3     1  UNL1        0.1457
     23 C          62.5695   82.2245   12.1711 C.3     1  UNL1        0.0270
@<TRIPOS>BOND
     1    21    22    1
     2    22    23    1
     3    22    18    1
     4    18    19    2
     5    18    20    2
     6    18    16    1
     7    16     1    1
     8     1     2    1
     9     2     3    1
    10     3     4   ar
    11     4     5   ar
    12     5     6   ar
    13     6    10    1
    14    10    11   ar
    15    11    12   ar
    16    12    13   ar
    17    13    14   ar
    18    14    15   ar
    19     6     7   ar
    20     7     8   ar
    21     8     9    1
    22     9     1    1
    23     8     3   ar
    24    15    10   ar
    25    16    17    1
@<TRIPOS>MOLECULE
*****
 23 25 0 0 0
SMALL
GASTEIGER

@<TRIPOS>ATOM
      1 C          63.1023   90.0417   12.0010 C.3     1  UNL1        0.0838
      2 C          62.3436   89.3831   10.8873 C.3     1  UNL1        0.0437
      3 C          62.3554   87.9029   11.1302 C.ar    1  UNL1       -0.0247
      4 C          61.7675   86.7553   10.3637 C.ar    1  UNL1       -0.0045
      5 C          61.9457   85.3516   10.8613 C.ar    1  UNL1       -0.0003
      6 C          62.7118   85.0954   12.1252 C.ar    1  UNL1        0.0012
      7 C          63.2996   86.2429   12.8916 C.ar    1  UNL1       -0.0045
      8 C          63.1214   87.6467   12.3941 C.ar    1  UNL1       -0.0247
      9 C          63.5830   88.9686   12.9323 C.3     1  UNL1        0.0437
     10 C          62.8900   83.6915   12.6227 C.ar    1  UNL1        0.0192
     11 C          62.6966   82.5343   11.6881 C.ar    1  UNL1        0.0031
     12 C          62.8748   81.1305   12.1856 C.ar    1  UNL1        0.0207
     13 C          63.2464   80.8838   13.6178 C.ar    1  UNL1        0.0989
     14 N          63.4397   82.0410   14.5524 N.ar    1  UNL1       -0.2423
     15 C          63.2615   83.4448   14.0549 C.ar    1  UNL1        0.0988
     16 N          63.3388   91.5148   12.1563 N.3     1  UNL1       -0.1841
     17 H          62.8589   91.9733   11.3818 H       1  UNL1        0.1484
     18 S          64.7393   92.0515   12.1765 S.O2    1  UNL1        0.0390
     19 O          64.7686   92.0313   10.6769 O.2     1  UNL1       -0.1576
     20 O          64.7100   92.0717   13.6760 O.2     1  UNL1       -0.1576
     21 C          66.7163   93.1326   13.4699 C.3     1  UNL1        0.0270
     22 C          66.1399   92.5883   12.1966 C.3     1  UNL1        0.1457
     23 C          66.9641   92.5807   10.9433 C.3     1  UNL1        0.0270
@<TRIPOS>BOND
     1    21    22    1
     2    22    23    1
     3    22    18    1
     4    18    19    2
     5    18    20    2
     6    18    16    1
     7    16     1    1
     8     1     2    1
     9     2     3    1
    10     3     4   ar
    11     4     5   ar
    12     5     6   ar
    13     6    10    1
    14    10    11   ar
    15    11    12   ar
    16    12    13   ar
    17    13    14   ar
    18    14    15   ar
    19     6     7   ar
    20     7     8   ar
    21     8     9    1
    22     9     1    1
    23     8     3   ar
    24    15    10   ar
    25    16    17    1
@<TRIPOS>MOLECULE
*****
 23 25 0 0 0
SMALL
GASTEIGER

@<TRIPOS>ATOM
      1 C          61.8498   88.8160   11.1177 C.3     1  UNL1        0.0838
      2 C          62.3511   89.9866   10.3249 C.3     1  UNL1        0.0437
      3 C          63.4118   90.6737   11.1329 C.ar    1  UNL1       -0.0247
      4 C          64.2571   91.8821   10.8590 C.ar    1  UNL1       -0.0045
      5 C          65.2566   92.3446   11.8772 C.ar    1  UNL1       -0.0003
      6 C          65.4109   91.5987   13.1694 C.ar    1  UNL1        0.0012
      7 C          64.5656   90.3903   13.4434 C.ar    1  UNL1       -0.0045
      8 C          63.5661   89.9277   12.4251 C.ar    1  UNL1       -0.0247
      9 C          62.6007   88.7797   12.4157 C.3     1  UNL1        0.0437
     10 C          66.4105   92.0613   14.1877 C.ar    1  UNL1        0.0192
     11 C          67.8786   91.9594   13.8977 C.ar    1  UNL1        0.0031
     12 C          68.8783   92.4220   14.9160 C.ar    1  UNL1        0.0207
     13 C          68.4097   92.9865   16.2243 C.ar    1  UNL1        0.0989
     14 N          66.9415   93.0884   16.5143 N.ar    1  UNL1       -0.2423
     15 C          65.9419   92.6258   15.4961 C.ar    1  UNL1        0.0988
     16 N          60.7847   87.8513   10.6879 N.3     1  UNL1       -0.1841
     17 H          60.5931   87.2485   11.4882 H       1  UNL1        0.1484
     18 S          61.0197   86.9492    9.5128 S.O2    1  UNL1        0.0390
     19 O          59.7655   87.4613    8.8689 O.2     1  UNL1       -0.1576
     20 O          62.2738   86.4371   10.1568 O.2     1  UNL1       -0.1576
     21 C          62.5848   85.3766    8.1610 C.3     1  UNL1        0.0270
     22 C          61.2547   86.0470    8.3376 C.3     1  UNL1        0.1457
     23 C          60.1595   85.8154    7.3391 C.3     1  UNL1        0.0270
@<TRIPOS>BOND
     1    21    22    1
     2    22    23    1
     3    22    18    1
     4    18    19    2
     5    18    20    2
     6    18    16    1
     7    16     1    1
     8     1     2    1
     9     2     3    1
    10     3     4   ar
    11     4     5   ar
    12     5     6   ar
    13     6    10    1
    14    10    11   ar
    15    11    12   ar
    16    12    13   ar
    17    13    14   ar
    18    14    15   ar
    19     6     7   ar
    20     7     8   ar
    21     8     9    1
    22     9     1    1
    23     8     3   ar
    24    15    10   ar
    25    16    17    1
@<TRIPOS>MOLECULE
*****
 23 25 0 0 0
SMALL
GASTEIGER

@<TRIPOS>ATOM
      1 C          61.9500   89.9714   10.4754 C.3     1  UNL1        0.0838
      2 C          62.0518   89.0852   11.6813 C.3     1  UNL1        0.0437
      3 C          63.1449   89.6197   12.5585 C.ar    1  UNL1       -0.0247
      4 C          63.6918   89.1557   13.8759 C.ar    1  UNL1       -0.0045
      5 C          64.8126   89.9084   14.5295 C.ar    1  UNL1       -0.0003
      6 C          65.3864   91.1250   13.8658 C.ar    1  UNL1        0.0012
      7 C          64.8395   91.5889   12.5484 C.ar    1  UNL1       -0.0045
      8 C          63.7187   90.8363   11.8948 C.ar    1  UNL1       -0.0247
      9 C          62.9803   91.0536   10.6073 C.3     1  UNL1        0.0437
     10 C          66.5073   91.8777   14.5195 C.ar    1  UNL1        0.0192
     11 C          67.8684   91.8928   13.8893 C.ar    1  UNL1        0.0031
     12 C          68.9892   92.6455   14.5430 C.ar    1  UNL1        0.0207
     13 C          68.7489   93.3830   15.8269 C.ar    1  UNL1        0.0989
     14 N          67.3877   93.3679   16.4570 N.ar    1  UNL1       -0.2423
     15 C          66.2670   92.6152   15.8033 C.ar    1  UNL1        0.0988
     16 N          60.9871   89.8047    9.3374 N.3     1  UNL1       -0.1841
     17 H          60.1088   90.2330    9.6297 H       1  UNL1        0.1484
     18 S          60.6528   88.4323    8.8328 S.O2    1  UNL1        0.0390
     19 O          61.9424   87.9116    9.3945 O.2     1  UNL1       -0.1576
     20 O          59.3631   88.9530    8.2711 O.2     1  UNL1       -0.1576
     21 C          58.9651   86.7851    7.7426 C.3     1  UNL1        0.0270
     22 C          60.3185   87.0598    8.3282 C.3     1  UNL1        0.1457
     23 C          61.3375   85.9621    8.4091 C.3     1  UNL1        0.0270
@<TRIPOS>BOND
     1    21    22    1
     2    22    23    1
     3    22    18    1
     4    18    19    2
     5    18    20    2
     6    18    16    1
     7    16     1    1
     8     1     2    1
     9     2     3    1
    10     3     4   ar
    11     4     5   ar
    12     5     6   ar
    13     6    10    1
    14    10    11   ar
    15    11    12   ar
    16    12    13   ar
    17    13    14   ar
    18    14    15   ar
    19     6     7   ar
    20     7     8   ar
    21     8     9    1
    22     9     1    1
    23     8     3   ar
    24    15    10   ar
    25    16    17    1
@<TRIPOS>MOLECULE
*****
 23 25 0 0 0
SMALL
GASTEIGER

@<TRIPOS>ATOM
      1 C          62.3833   87.2190   11.8769 C.3     1  UNL1        0.0838
      2 C          62.2676   88.5275   11.1526 C.3     1  UNL1        0.0437
      3 C          63.1638   89.5169   11.8368 C.ar    1  UNL1       -0.0247
      4 C          63.4567   90.9623   11.5635 C.ar    1  UNL1       -0.0045
      5 C          64.4190   91.7108   12.4373 C.ar    1  UNL1       -0.0003
      6 C          65.0885   91.0138   13.5844 C.ar    1  UNL1        0.0012
      7 C          64.7957   89.5683   13.8578 C.ar    1  UNL1       -0.0045
      8 C          63.8333   88.8198   12.9840 C.ar    1  UNL1       -0.0247
      9 C          63.3509   87.3997   13.0087 C.3     1  UNL1        0.0437
     10 C          66.0510   91.7624   14.4582 C.ar    1  UNL1        0.0192
     11 C          67.4724   91.9515   14.0181 C.ar    1  UNL1        0.0031
     12 C          68.4348   92.7000   14.8920 C.ar    1  UNL1        0.0207
     13 C          67.9757   93.2594   16.2058 C.ar    1  UNL1        0.0989
     14 N          66.5542   93.0703   16.6459 N.ar    1  UNL1       -0.2423
     15 C          65.5919   92.3218   15.7721 C.ar    1  UNL1        0.0988
     16 N          61.6585   85.9523   11.5302 N.3     1  UNL1       -0.1841
     17 H          60.9557   85.8074   12.2551 H       1  UNL1        0.1484
     18 S          62.4179   84.6654   11.3999 S.O2    1  UNL1        0.0390
     19 O          62.6614   84.9561    9.9486 O.2     1  UNL1       -0.1576
     20 O          62.1744   84.3747   12.8511 O.2     1  UNL1       -0.1576
     21 C          64.2775   83.2560   10.2572 C.3     1  UNL1        0.0270
     22 C          63.1774   83.3784   11.2694 C.3     1  UNL1        0.1457
     23 C          62.8366   82.2138   12.1513 C.3     1  UNL1        0.0270
@<TRIPOS>BOND
     1    21    22    1
     2    22    23    1
     3    22    18    1
     4    18    19    2
     5    18    20    2
     6    18    16    1
     7    16     1    1
     8     1     2    1
     9     2     3    1
    10     3     4   ar
    11     4     5   ar
    12     5     6   ar
    13     6    10    1
    14    10    11   ar
    15    11    12   ar
    16    12    13   ar
    17    13    14   ar
    18    14    15   ar
    19     6     7   ar
    20     7     8   ar
    21     8     9    1
    22     9     1    1
    23     8     3   ar
    24    15    10   ar
    25    16    17    1
