@<TRIPOS>MOLECULE
*****
 37 42 0 0 0
SMALL
GASTEIGER

@<TRIPOS>ATOM
      1 N          63.8818   86.2993   15.7661 N.pl3   1  UNL1       -0.3275
      2 C          63.7600   87.2746   14.6328 C.ar    1  UNL1        0.2134
      3 N          64.5159   88.5695   14.6733 N.ar    1  UNL1       -0.2169
      4 C          64.3941   89.5448   13.5402 C.ar    1  UNL1        0.0810
      5 C          63.5163   89.2251   12.3666 C.ar    1  UNL1        0.0309
      6 C          62.7604   87.9302   12.3261 C.ar    1  UNL1        0.0867
      7 N          62.8822   86.9549   13.4593 N.ar    1  UNL1       -0.2141
      8 C          63.5933   90.3729   11.4039 C.3     1  UNL1        0.1248
      9 N          64.5186   91.4019   11.9826 N.am    1  UNL1       -0.2543
     10 C          64.8847   92.7126   11.3518 C.2     1  UNL1        0.3044
     11 O          64.3076   93.0911   10.0200 O.2     1  UNL1       -0.2526
     12 N          65.8280   93.6448   12.0527 N.am    1  UNL1       -0.2919
     13 C          65.0136   90.8901   13.3029 C.3     1  UNL1        0.1409
     14 H          64.4579   86.5091   16.5363 H       1  UNL1        0.1452
     15 H          63.3857   85.4494   15.7395 H       1  UNL1        0.1452
     16 H          66.2067   93.3964   12.9268 H       1  UNL1        0.1508
     17 C          61.8826   87.6104   11.1525 C.ar    1  UNL1        0.0621
     18 C          60.7161   88.4950   10.8255 C.ar    1  UNL1        0.0629
     19 CL         60.4275   89.6991   11.6720 Cl      1  UNL1       -0.0821
     20 C          59.8383   88.1753    9.6519 C.ar    1  UNL1        0.0230
     21 C          60.1270   86.9711    8.8055 C.ar    1  UNL1        0.0615
     22 CL         59.2491   86.6514    7.6319 Cl      1  UNL1       -0.0821
     23 C          61.2934   86.0866    9.1325 C.ar    1  UNL1        0.0484
     24 C          62.1713   86.4062   10.3061 C.ar    1  UNL1        0.1417
     25 O          63.3377   85.5217   10.6331 O.3     1  UNL1       -0.4732
     26 C          63.3012   84.0671   10.2690 C.3     1  UNL1        0.2316
     27 C          63.8750   83.0450   11.2050 C.3     1  UNL1        0.1746
     28 N          63.2007   82.7658   12.5155 N.ar    1  UNL1       -0.2455
     29 C          62.3605   81.5653   12.8366 C.ar    1  UNL1        0.0968
     30 C          61.8887   81.6956   14.2545 C.ar    1  UNL1        0.0427
     31 C          62.4373   82.9765   14.8097 C.ar    1  UNL1        0.1217
     32 N          63.2481   83.6379   13.7349 N.ar    1  UNL1       -0.1675
     33 C          66.1940   94.9555   11.4218 C.3     1  UNL1        0.0582
     34 C          65.9584   96.3979   11.7596 C.3     1  UNL1        0.0182
     35 C          66.7118   96.8091   10.5294 C.3     1  UNL1        0.0047
     36 C          66.9475   95.3668   10.1916 C.3     1  UNL1        0.0182
     37 C          66.6211   95.7070   10.7090 C.3     1  UNL1        0.0182
@<TRIPOS>BOND
     1     1     2    1
     2     2     3   ar
     3     3     4   ar
     4     4     5   ar
     5     5     6   ar
     6     6    17    1
     7    17    18   ar
     8    18    19    1
     9    18    20   ar
    10    20    21   ar
    11    21    22    1
    12    21    23   ar
    13    23    24   ar
    14    24    25    1
    15    25    26    1
    16    26    27    1
    17    27    28    1
    18    28    29   ar
    19    29    30   ar
    20    30    31   ar
    21    31    32   ar
    22     6     7   ar
    23     5     8    1
    24     8     9    1
    25     9    10   am
    26    10    11    2
    27    10    12   am
    28    12    33    1
    29    33    34    1
    30    34    35    1
    31    35    36    1
    32    35    37    1
    33     9    13    1
    34     7     2   ar
    35    36    33    1
    36    13     4    1
    37    24    17   ar
    38    32    28   ar
    39    37    33    1
    40     1    14    1
    41     1    15    1
    42    12    16    1
@<TRIPOS>MOLECULE
*****
 37 42 0 0 0
SMALL
GASTEIGER

@<TRIPOS>ATOM
      1 N          58.6406   91.2673   11.1866 N.pl3   1  UNL1       -0.3275
      2 C          59.7942   90.3473   11.4569 C.ar    1  UNL1        0.2134
      3 N          59.6491   88.8732   11.2201 N.ar    1  UNL1       -0.2169
      4 C          60.8026   87.9532   11.4903 C.ar    1  UNL1        0.0810
      5 C          62.1011   88.5072   11.9973 C.ar    1  UNL1        0.0309
      6 C          62.2461   89.9813   12.2340 C.ar    1  UNL1        0.0867
      7 N          61.0926   90.9013   11.9638 N.ar    1  UNL1       -0.2141
      8 C          63.0561   87.3639   12.1723 C.3     1  UNL1        0.1248
      9 N          62.3479   86.1032   11.7736 N.am    1  UNL1       -0.2543
     10 C          62.9301   84.7209   11.7929 C.2     1  UNL1        0.3044
     11 O          64.3457   84.5096   12.2415 O.2     1  UNL1       -0.2526
     12 N          62.0967   83.5500   11.3635 N.am    1  UNL1       -0.2919
     13 C          60.9551   86.4674   11.3521 C.3     1  UNL1        0.1409
     14 H          57.7884   90.9037   10.8539 H       1  UNL1        0.1452
     15 H          58.7358   92.2348   11.3420 H       1  UNL1        0.1452
     16 H          61.1675   83.6887   11.0691 H       1  UNL1        0.1508
     17 C          63.5446   90.5354   12.7409 C.ar    1  UNL1        0.0621
     18 C          64.3808   91.4137   11.8581 C.ar    1  UNL1        0.0629
     19 CL         63.9185   91.7379   10.4685 Cl      1  UNL1       -0.0821
     20 C          65.6793   91.9679   12.3649 C.ar    1  UNL1        0.0230
     21 C          66.1415   91.6437   13.7546 C.ar    1  UNL1        0.0615
     22 CL         67.4400   92.1979   14.2614 Cl      1  UNL1       -0.0821
     23 C          65.3053   90.7654   14.6374 C.ar    1  UNL1        0.0484
     24 C          64.0069   90.2112   14.1306 C.ar    1  UNL1        0.1417
     25 O          63.1707   89.3329   15.0134 O.3     1  UNL1       -0.4732
     26 C          63.3169   89.4113   16.5042 C.3     1  UNL1        0.2316
     27 C          63.0229   88.2085   17.3509 C.3     1  UNL1        0.1746
     28 N          62.9964   86.8430   16.7307 N.ar    1  UNL1       -0.2455
     29 C          64.0605   86.2519   15.8543 C.ar    1  UNL1        0.0968
     30 C          63.6228   84.8723   15.4600 C.ar    1  UNL1        0.0427
     31 C          62.2882   84.6110   16.0928 C.ar    1  UNL1        0.1217
     32 N          61.9010   85.8289   16.8782 N.ar    1  UNL1       -0.1675
     33 C          62.6790   82.1677   11.3829 C.3     1  UNL1        0.0582
     34 C          63.5006   81.3494   10.4314 C.3     1  UNL1        0.0182
     35 C          63.5025   80.2130   11.4104 C.3     1  UNL1        0.0047
     36 C          62.6808   81.0312   12.3619 C.3     1  UNL1        0.0182
     37 C          62.9513   81.1362   11.7249 C.3     1  UNL1        0.0182
@<TRIPOS>BOND
     1     1     2    1
     2     2     3   ar
     3     3     4   ar
     4     4     5   ar
     5     5     6   ar
     6     6    17    1
     7    17    18   ar
     8    18    19    1
     9    18    20   ar
    10    20    21   ar
    11    21    22    1
    12    21    23   ar
    13    23    24   ar
    14    24    25    1
    15    25    26    1
    16    26    27    1
    17    27    28    1
    18    28    29   ar
    19    29    30   ar
    20    30    31   ar
    21    31    32   ar
    22     6     7   ar
    23     5     8    1
    24     8     9    1
    25     9    10   am
    26    10    11    2
    27    10    12   am
    28    12    33    1
    29    33    34    1
    30    34    35    1
    31    35    36    1
    32    35    37    1
    33     9    13    1
    34     7     2   ar
    35    36    33    1
    36    13     4    1
    37    24    17   ar
    38    32    28   ar
    39    37    33    1
    40     1    14    1
    41     1    15    1
    42    12    16    1
@<TRIPOS>MOLECULE
*****
 37 42 0 0 0
SMALL
GASTEIGER

@<TRIPOS>ATOM
      1 N          63.9616   93.4220   17.7973 N.pl3   1  UNL1       -0.3275
      2 C          64.1578   92.3225   16.7959 C.ar    1  UNL1        0.2134
      3 N          63.6521   90.9413   17.0900 N.ar    1  UNL1       -0.2169
      4 C          63.8483   89.8418   16.0886 C.ar    1  UNL1        0.0810
      5 C          64.5501   90.1236   14.7932 C.ar    1  UNL1        0.0309
      6 C          65.0558   91.5048   14.4992 C.ar    1  UNL1        0.0867
      7 N          64.8596   92.6043   15.5006 N.ar    1  UNL1       -0.2141
      8 C          64.5971   88.8486   14.0046 C.3     1  UNL1        0.1248
      9 N          63.9243   87.7788   14.8125 N.am    1  UNL1       -0.2543
     10 C          63.7456   86.3465   14.4042 C.2     1  UNL1        0.3044
     11 O          64.2640   85.8744   13.0782 O.2     1  UNL1       -0.2526
     12 N          63.0484   85.3864   15.3219 N.am    1  UNL1       -0.2919
     13 C          63.4615   88.3926   16.1006 C.3     1  UNL1        0.1409
     14 H          63.5010   93.2370   18.6475 H       1  UNL1        0.1452
     15 H          64.2935   94.3286   17.6044 H       1  UNL1        0.1452
     16 H          62.7081   85.6962   16.1922 H       1  UNL1        0.1508
     17 C          65.7576   91.7867   13.2038 C.ar    1  UNL1        0.0621
     18 C          67.2487   91.9475   13.1782 C.ar    1  UNL1        0.0629
     19 CL         68.0380   91.8265   14.4481 Cl      1  UNL1       -0.0821
     20 C          67.9507   92.2294   11.8829 C.ar    1  UNL1        0.0230
     21 C          67.1614   92.3504   10.6131 C.ar    1  UNL1        0.0615
     22 CL         67.8633   92.6322    9.3178 Cl      1  UNL1       -0.0821
     23 C          65.6703   92.1895   10.6387 C.ar    1  UNL1        0.0484
     24 C          64.9683   91.9077   11.9340 C.ar    1  UNL1        0.1417
     25 O          63.4772   91.7468   11.9595 O.3     1  UNL1       -0.4732
     26 C          62.8046   90.8330   10.9784 C.3     1  UNL1        0.2316
     27 C          61.5761   90.0729   11.3821 C.3     1  UNL1        0.1746
     28 N          61.3432   88.6886   10.8536 N.ar    1  UNL1       -0.2455
     29 C          60.8162   88.3414    9.4928 C.ar    1  UNL1        0.0968
     30 C          60.7437   86.8465    9.3912 C.ar    1  UNL1        0.0427
     31 C          61.2259   86.2699   10.6893 C.ar    1  UNL1        0.1217
     32 N          61.5964   87.4083   11.5930 N.ar    1  UNL1       -0.1675
     33 C          62.8698   83.9541   14.9135 C.3     1  UNL1        0.0582
     34 C          63.7941   82.8005   14.6588 C.3     1  UNL1        0.0182
     35 C          62.6170   81.9287   14.3359 C.3     1  UNL1        0.0047
     36 C          61.6927   83.0822   14.5905 C.3     1  UNL1        0.0182
     37 C          62.3861   82.9893   14.6131 C.3     1  UNL1        0.0182
@<TRIPOS>BOND
     1     1     2    1
     2     2     3   ar
     3     3     4   ar
     4     4     5   ar
     5     5     6   ar
     6     6    17    1
     7    17    18   ar
     8    18    19    1
     9    18    20   ar
    10    20    21   ar
    11    21    22    1
    12    21    23   ar
    13    23    24   ar
    14    24    25    1
    15    25    26    1
    16    26    27    1
    17    27    28    1
    18    28    29   ar
    19    29    30   ar
    20    30    31   ar
    21    31    32   ar
    22     6     7   ar
    23     5     8    1
    24     8     9    1
    25     9    10   am
    26    10    11    2
    27    10    12   am
    28    12    33    1
    29    33    34    1
    30    34    35    1
    31    35    36    1
    32    35    37    1
    33     9    13    1
    34     7     2   ar
    35    36    33    1
    36    13     4    1
    37    24    17   ar
    38    32    28   ar
    39    37    33    1
    40     1    14    1
    41     1    15    1
    42    12    16    1
@<TRIPOS>MOLECULE
*****
 37 42 0 0 0
SMALL
GASTEIGER

@<TRIPOS>ATOM
      1 N          58.9529   88.0365    8.3860 N.pl3   1  UNL1       -0.3275
      2 C          60.0829   87.9039    9.3635 C.ar    1  UNL1        0.2134
      3 N          60.5520   89.1020   10.1345 N.ar    1  UNL1       -0.2169
      4 C          61.6820   88.9695   11.1120 C.ar    1  UNL1        0.0810
      5 C          62.3430   87.6389   11.3184 C.ar    1  UNL1        0.0309
      6 C          61.8739   86.4408   10.5474 C.ar    1  UNL1        0.0867
      7 N          60.7439   86.5734    9.5699 N.ar    1  UNL1       -0.2141
      8 C          63.4253   87.8128   12.3423 C.3     1  UNL1        0.1248
      9 N          63.4332   89.2509   12.7687 N.am    1  UNL1       -0.2543
     10 C          64.3564   89.8661   13.7782 C.2     1  UNL1        0.3044
     11 O          65.3905   89.0214   14.4618 O.2     1  UNL1       -0.2526
     12 N          64.2457   91.3261   14.1042 N.am    1  UNL1       -0.2919
     13 C          62.3558   89.9658   12.0083 C.3     1  UNL1        0.1409
     14 H          58.5191   88.9099    8.2505 H       1  UNL1        0.1452
     15 H          58.6450   87.2502    7.8799 H       1  UNL1        0.1452
     16 H          63.5670   91.8805   13.6556 H       1  UNL1        0.1508
     17 C          62.5349   85.1101   10.7538 C.ar    1  UNL1        0.0621
     18 C          63.1922   84.4123    9.6001 C.ar    1  UNL1        0.0629
     19 CL         63.1886   85.0452    8.2402 Cl      1  UNL1       -0.0821
     20 C          63.8532   83.0817    9.8064 C.ar    1  UNL1        0.0230
     21 C          63.8567   82.4489   11.1663 C.ar    1  UNL1        0.0615
     22 CL         64.5176   81.1183   11.3726 Cl      1  UNL1       -0.0821
     23 C          63.1993   83.1467   12.3200 C.ar    1  UNL1        0.0484
     24 C          62.5384   84.4774   12.1137 C.ar    1  UNL1        0.1417
     25 O          61.8810   85.1752   13.2674 O.3     1  UNL1       -0.4732
     26 C          61.7823   84.4923   14.5993 C.3     1  UNL1        0.2316
     27 C          62.8652   84.6795   15.6201 C.3     1  UNL1        0.1746
     28 N          62.9079   85.9297   16.4477 N.ar    1  UNL1       -0.2455
     29 C          62.5554   86.0370   17.9018 C.ar    1  UNL1        0.0968
     30 C          62.7402   87.4659   18.3193 C.ar    1  UNL1        0.0427
     31 C          63.2068   88.2416   17.1233 C.ar    1  UNL1        0.1217
     32 N          63.3104   87.2922   15.9666 N.ar    1  UNL1       -0.1675
     33 C          65.1690   91.9412   15.1138 C.3     1  UNL1        0.0582
     34 C          65.0465   92.3527   16.5510 C.3     1  UNL1        0.0182
     35 C          66.4747   92.8112   16.5414 C.3     1  UNL1        0.0047
     36 C          66.5971   92.3996   15.1042 C.3     1  UNL1        0.0182
     37 C          66.0855   92.3842   15.5816 C.3     1  UNL1        0.0182
@<TRIPOS>BOND
     1     1     2    1
     2     2     3   ar
     3     3     4   ar
     4     4     5   ar
     5     5     6   ar
     6     6    17    1
     7    17    18   ar
     8    18    19    1
     9    18    20   ar
    10    20    21   ar
    11    21    22    1
    12    21    23   ar
    13    23    24   ar
    14    24    25    1
    15    25    26    1
    16    26    27    1
    17    27    28    1
    18    28    29   ar
    19    29    30   ar
    20    30    31   ar
    21    31    32   ar
    22     6     7   ar
    23     5     8    1
    24     8     9    1
    25     9    10   am
    26    10    11    2
    27    10    12   am
    28    12    33    1
    29    33    34    1
    30    34    35    1
    31    35    36    1
    32    35    37    1
    33     9    13    1
    34     7     2   ar
    35    36    33    1
    36    13     4    1
    37    24    17   ar
    38    32    28   ar
    39    37    33    1
    40     1    14    1
    41     1    15    1
    42    12    16    1
@<TRIPOS>MOLECULE
*****
 37 42 0 0 0
SMALL
GASTEIGER

@<TRIPOS>ATOM
      1 N          62.4148   83.3363   14.4898 N.pl3   1  UNL1       -0.3275
      2 C          62.6436   84.7132   13.9401 C.ar    1  UNL1        0.2134
      3 N          63.5498   85.6672   14.6603 N.ar    1  UNL1       -0.2169
      4 C          63.7786   87.0439   14.1106 C.ar    1  UNL1        0.0810
      5 C          63.1013   87.4667   12.8408 C.ar    1  UNL1        0.0309
      6 C          62.1952   86.5127   12.1206 C.ar    1  UNL1        0.0867
      7 N          61.9664   85.1359   12.6703 N.ar    1  UNL1       -0.2141
      8 C          63.5152   88.8771   12.5420 C.3     1  UNL1        0.1248
      9 N          64.4483   89.3261   13.6272 N.am    1  UNL1       -0.2543
     10 C          65.1036   90.6718   13.7256 C.2     1  UNL1        0.3044
     11 O          64.8447   91.7108   12.6752 O.2     1  UNL1       -0.2526
     12 N          66.0179   90.9786   14.8746 N.am    1  UNL1       -0.2919
     13 C          64.6112   88.1932   14.5967 C.3     1  UNL1        0.1409
     14 H          62.8594   83.0589   15.3233 H       1  UNL1        0.1452
     15 H          61.8201   82.7101   14.0172 H       1  UNL1        0.1452
     16 H          66.1878   90.2967   15.5641 H       1  UNL1        0.1508
     17 C          61.5178   86.9353   10.8507 C.ar    1  UNL1        0.0621
     18 C          60.3374   87.8595   10.9020 C.ar    1  UNL1        0.0629
     19 CL         59.8344   88.3609   12.2232 Cl      1  UNL1       -0.0821
     20 C          59.6600   88.2822    9.6322 C.ar    1  UNL1        0.0230
     21 C          60.1630   87.7807    8.3111 C.ar    1  UNL1        0.0615
     22 CL         59.4856   88.2034    7.0413 Cl      1  UNL1       -0.0821
     23 C          61.3434   86.8566    8.2597 C.ar    1  UNL1        0.0484
     24 C          62.0208   86.4339    9.5295 C.ar    1  UNL1        0.1417
     25 O          63.2012   85.5097    9.4782 O.3     1  UNL1       -0.4732
     26 C          63.0117   84.0382    9.6986 C.3     1  UNL1        0.2316
     27 C          64.1109   83.2245   10.3148 C.3     1  UNL1        0.1746
     28 N          63.7906   82.2102   11.3724 N.ar    1  UNL1       -0.2455
     29 C          62.7107   81.1716   11.2998 C.ar    1  UNL1        0.0968
     30 C          62.7467   80.3759   12.5709 C.ar    1  UNL1        0.0427
     31 C          63.8488   80.9226   13.4290 C.ar    1  UNL1        0.1217
     32 N          64.4940   82.0563   12.6883 N.ar    1  UNL1       -0.1675
     33 C          66.6731   92.3243   14.9730 C.3     1  UNL1        0.0582
     34 C          66.5491   93.6214   14.2298 C.3     1  UNL1        0.0182
     35 C          67.5999   94.2274   15.1122 C.3     1  UNL1        0.0047
     36 C          67.7239   92.9304   15.8554 C.3     1  UNL1        0.0182
     37 C          67.3363   93.1583   15.3190 C.3     1  UNL1        0.0182
@<TRIPOS>BOND
     1     1     2    1
     2     2     3   ar
     3     3     4   ar
     4     4     5   ar
     5     5     6   ar
     6     6    17    1
     7    17    18   ar
     8    18    19    1
     9    18    20   ar
    10    20    21   ar
    11    21    22    1
    12    21    23   ar
    13    23    24   ar
    14    24    25    1
    15    25    26    1
    16    26    27    1
    17    27    28    1
    18    28    29   ar
    19    29    30   ar
    20    30    31   ar
    21    31    32   ar
    22     6     7   ar
    23     5     8    1
    24     8     9    1
    25     9    10   am
    26    10    11    2
    27    10    12   am
    28    12    33    1
    29    33    34    1
    30    34    35    1
    31    35    36    1
    32    35    37    1
    33     9    13    1
    34     7     2   ar
    35    36    33    1
    36    13     4    1
    37    24    17   ar
    38    32    28   ar
    39    37    33    1
    40     1    14    1
    41     1    15    1
    42    12    16    1
@<TRIPOS>MOLECULE
*****
 37 42 0 0 0
SMALL
GASTEIGER

@<TRIPOS>ATOM
      1 N          58.9324   88.4737    8.0357 N.pl3   1  UNL1       -0.3275
      2 C          60.0330   88.2754    9.0354 C.ar    1  UNL1        0.2134
      3 N          60.4759   89.4186    9.8998 N.ar    1  UNL1       -0.2169
      4 C          61.5766   89.2203   10.8994 C.ar    1  UNL1        0.0810
      5 C          62.2342   87.8790   11.0348 C.ar    1  UNL1        0.0309
      6 C          61.7913   86.7359   10.1705 C.ar    1  UNL1        0.0867
      7 N          60.6907   86.9342    9.1708 N.ar    1  UNL1       -0.2141
      8 C          63.2850   87.9833   12.1001 C.3     1  UNL1        0.1248
      9 N          63.2768   89.3891   12.6232 N.am    1  UNL1       -0.2543
     10 C          64.1679   89.9347   13.6994 C.2     1  UNL1        0.3044
     11 O          65.1831   89.0459   14.3547 O.2     1  UNL1       -0.2526
     12 N          64.0440   91.3691   14.1203 N.am    1  UNL1       -0.2919
     13 C          62.2209   90.1537   11.8812 C.3     1  UNL1        0.1409
     14 H          58.5007   89.3541    7.9470 H       1  UNL1        0.1452
     15 H          58.6416   87.7235    7.4684 H       1  UNL1        0.1452
     16 H          63.3777   91.9525   13.6902 H       1  UNL1        0.1508
     17 C          62.4490   85.3945   10.3057 C.ar    1  UNL1        0.0621
     18 C          63.0963   84.7531    9.1143 C.ar    1  UNL1        0.0629
     19 CL         63.0859   85.4530    7.7877 Cl      1  UNL1       -0.0821
     20 C          63.7539   83.4117    9.2495 C.ar    1  UNL1        0.0230
     21 C          63.7642   82.7119   10.5761 C.ar    1  UNL1        0.0615
     22 CL         64.4219   81.3705   10.7113 Cl      1  UNL1       -0.0821
     23 C          63.1169   83.3533   11.7676 C.ar    1  UNL1        0.0484
     24 C          62.4593   84.6947   11.6324 C.ar    1  UNL1        0.1417
     25 O          61.8120   85.3361   12.8238 O.3     1  UNL1       -0.4732
     26 C          62.4089   85.1578   14.1883 C.3     1  UNL1        0.2316
     27 C          61.9918   83.9984   15.0437 C.3     1  UNL1        0.1746
     28 N          62.3201   82.5974   14.6202 N.ar    1  UNL1       -0.2455
     29 C          61.3384   81.5662   14.1480 C.ar    1  UNL1        0.0968
     30 C          62.0993   80.3130   13.8304 C.ar    1  UNL1        0.0427
     31 C          63.5512   80.5699   14.1063 C.ar    1  UNL1        0.1217
     32 N          63.6876   81.9817   14.5944 N.ar    1  UNL1       -0.1675
     33 C          64.9352   91.9146   15.1965 C.3     1  UNL1        0.0582
     34 C          64.7644   92.2423   16.6503 C.3     1  UNL1        0.0182
     35 C          66.1956   92.6860   16.7184 C.3     1  UNL1        0.0047
     36 C          66.3665   92.3582   15.2647 C.3     1  UNL1        0.0182
     37 C          65.8378   92.3200   15.7219 C.3     1  UNL1        0.0182
@<TRIPOS>BOND
     1     1     2    1
     2     2     3   ar
     3     3     4   ar
     4     4     5   ar
     5     5     6   ar
     6     6    17    1
     7    17    18   ar
     8    18    19    1
     9    18    20   ar
    10    20    21   ar
    11    21    22    1
    12    21    23   ar
    13    23    24   ar
    14    24    25    1
    15    25    26    1
    16    26    27    1
    17    27    28    1
    18    28    29   ar
    19    29    30   ar
    20    30    31   ar
    21    31    32   ar
    22     6     7   ar
    23     5     8    1
    24     8     9    1
    25     9    10   am
    26    10    11    2
    27    10    12   am
    28    12    33    1
    29    33    34    1
    30    34    35    1
    31    35    36    1
    32    35    37    1
    33     9    13    1
    34     7     2   ar
    35    36    33    1
    36    13     4    1
    37    24    17   ar
    38    32    28   ar
    39    37    33    1
    40     1    14    1
    41     1    15    1
    42    12    16    1
@<TRIPOS>MOLECULE
*****
 37 42 0 0 0
SMALL
GASTEIGER

@<TRIPOS>ATOM
      1 N          61.4632   91.1307    8.8634 N.pl3   1  UNL1       -0.3275
      2 C          62.0414   90.3046    9.9740 C.ar    1  UNL1        0.2134
      3 N          61.8140   88.8222   10.0026 N.ar    1  UNL1       -0.2169
      4 C          62.3921   87.9960   11.1131 C.ar    1  UNL1        0.0810
      5 C          63.1977   88.6522   12.1950 C.ar    1  UNL1        0.0309
      6 C          63.4251   90.1346   12.1664 C.ar    1  UNL1        0.0867
      7 N          62.8469   90.9608   11.0558 N.ar    1  UNL1       -0.2141
      8 C          63.6392   87.5875   13.1548 C.3     1  UNL1        0.1248
      9 N          63.1065   86.2732   12.6661 N.am    1  UNL1       -0.2543
     10 C          63.3090   84.9403   13.3238 C.2     1  UNL1        0.3044
     11 O          64.1079   84.8422   14.5895 O.2     1  UNL1       -0.2526
     12 N          62.7126   83.7056   12.7157 N.am    1  UNL1       -0.2919
     13 C          62.3358   86.5256   11.4043 C.3     1  UNL1        0.1409
     14 H          60.9345   90.7000    8.1534 H       1  UNL1        0.1452
     15 H          61.6124   92.1036    8.8446 H       1  UNL1        0.1452
     16 H          62.1883   83.7700   11.8850 H       1  UNL1        0.1508
     17 C          64.2307   90.7909   13.2482 C.ar    1  UNL1        0.0621
     18 C          63.8486   90.6031   14.6865 C.ar    1  UNL1        0.0629
     19 CL         62.6610   89.7590   15.0429 Cl      1  UNL1       -0.0821
     20 C          64.6541   91.2594   15.7684 C.ar    1  UNL1        0.0230
     21 C          65.8417   92.1034   15.4119 C.ar    1  UNL1        0.0615
     22 CL         66.6472   92.7597   16.4938 Cl      1  UNL1       -0.0821
     23 C          66.2238   92.2912   13.9736 C.ar    1  UNL1        0.0484
     24 C          65.4183   91.6350   12.8917 C.ar    1  UNL1        0.1417
     25 O          65.8004   91.8228   11.4534 O.3     1  UNL1       -0.4732
     26 C          67.2226   92.1305   11.0893 C.3     1  UNL1        0.2316
     27 C          67.5306   92.8472    9.8081 C.3     1  UNL1        0.1746
     28 N          67.3118   94.3276    9.7056 N.ar    1  UNL1       -0.2455
     29 C          67.4692   95.1584    8.4667 C.ar    1  UNL1        0.0968
     30 C          67.1518   96.5815    8.8194 C.ar    1  UNL1        0.0427
     31 C          66.7983   96.6300   10.2763 C.ar    1  UNL1        0.1217
     32 N          66.8971   95.2371   10.8240 N.ar    1  UNL1       -0.1675
     33 C          62.9152   82.3728   13.3735 C.3     1  UNL1        0.0582
     34 C          64.0708   81.4282   13.5227 C.3     1  UNL1        0.0182
     35 C          63.2015   80.4879   14.3037 C.3     1  UNL1        0.0047
     36 C          62.0458   81.4324   14.1545 C.3     1  UNL1        0.0182
     37 C          62.7140   81.4311   13.9460 C.3     1  UNL1        0.0182
@<TRIPOS>BOND
     1     1     2    1
     2     2     3   ar
     3     3     4   ar
     4     4     5   ar
     5     5     6   ar
     6     6    17    1
     7    17    18   ar
     8    18    19    1
     9    18    20   ar
    10    20    21   ar
    11    21    22    1
    12    21    23   ar
    13    23    24   ar
    14    24    25    1
    15    25    26    1
    16    26    27    1
    17    27    28    1
    18    28    29   ar
    19    29    30   ar
    20    30    31   ar
    21    31    32   ar
    22     6     7   ar
    23     5     8    1
    24     8     9    1
    25     9    10   am
    26    10    11    2
    27    10    12   am
    28    12    33    1
    29    33    34    1
    30    34    35    1
    31    35    36    1
    32    35    37    1
    33     9    13    1
    34     7     2   ar
    35    36    33    1
    36    13     4    1
    37    24    17   ar
    38    32    28   ar
    39    37    33    1
    40     1    14    1
    41     1    15    1
    42    12    16    1
@<TRIPOS>MOLECULE
*****
 37 42 0 0 0
SMALL
GASTEIGER

@<TRIPOS>ATOM
      1 N          58.9443   87.5437    9.0199 N.pl3   1  UNL1       -0.3275
      2 C          60.1893   88.0678    9.6721 C.ar    1  UNL1        0.2134
      3 N          60.6924   89.4398    9.3339 N.ar    1  UNL1       -0.2169
      4 C          61.9374   89.9640    9.9859 C.ar    1  UNL1        0.0810
      5 C          62.6794   89.1161   10.9762 C.ar    1  UNL1        0.0309
      6 C          62.1763   87.7440   11.3144 C.ar    1  UNL1        0.0867
      7 N          60.9312   87.2199   10.6622 N.ar    1  UNL1       -0.2141
      8 C          63.8685   89.8952   11.4546 C.3     1  UNL1        0.1248
      9 N          63.8615   91.2246   10.7600 N.am    1  UNL1       -0.2543
     10 C          64.8708   92.3194   10.9412 C.2     1  UNL1        0.3044
     11 O          66.0179   92.1325   11.8894 O.2     1  UNL1       -0.2526
     12 N          64.7329   93.6011   10.1742 N.am    1  UNL1       -0.2919
     13 C          62.6680   91.2672    9.8523 C.3     1  UNL1        0.1409
     14 H          58.4573   88.1002    8.3700 H       1  UNL1        0.1452
     15 H          58.6140   86.6432    9.2418 H       1  UNL1        0.1452
     16 H          63.9800   93.7238    9.5519 H       1  UNL1        0.1508
     17 C          62.9182   86.8960   12.3046 C.ar    1  UNL1        0.0621
     18 C          63.1388   85.4385   12.0272 C.ar    1  UNL1        0.0629
     19 CL         62.6175   84.8290   10.7596 Cl      1  UNL1       -0.0821
     20 C          63.8807   84.5904   13.0174 C.ar    1  UNL1        0.0230
     21 C          64.4019   85.2000   14.2849 C.ar    1  UNL1        0.0615
     22 CL         65.1438   84.3519   15.2751 Cl      1  UNL1       -0.0821
     23 C          64.1813   86.6575   14.5623 C.ar    1  UNL1        0.0484
     24 C          63.4394   87.5055   13.5722 C.ar    1  UNL1        0.1417
     25 O          63.2188   88.9631   13.8496 O.3     1  UNL1       -0.4732
     26 C          63.8241   89.5946   15.0681 C.3     1  UNL1        0.2316
     27 C          64.0833   91.0717   15.0970 C.3     1  UNL1        0.1746
     28 N          65.4777   91.5846   15.3035 N.ar    1  UNL1       -0.2455
     29 C          65.8810   92.6939   16.2292 C.ar    1  UNL1        0.0968
     30 C          67.3662   92.8731   16.1183 C.ar    1  UNL1        0.0427
     31 C          67.8807   91.8746   15.1242 C.ar    1  UNL1        0.1217
     32 N          66.7135   91.0782   14.6206 N.ar    1  UNL1       -0.1675
     33 C          65.7422   94.6959   10.3555 C.3     1  UNL1        0.0582
     34 C          65.8374   95.9185   11.2194 C.3     1  UNL1        0.0182
     35 C          67.1697   96.2440   10.6118 C.3     1  UNL1        0.0047
     36 C          67.0745   95.0214    9.7480 C.3     1  UNL1        0.0182
     37 C          66.6663   95.3174   10.2335 C.3     1  UNL1        0.0182
@<TRIPOS>BOND
     1     1     2    1
     2     2     3   ar
     3     3     4   ar
     4     4     5   ar
     5     5     6   ar
     6     6    17    1
     7    17    18   ar
     8    18    19    1
     9    18    20   ar
    10    20    21   ar
    11    21    22    1
    12    21    23   ar
    13    23    24   ar
    14    24    25    1
    15    25    26    1
    16    26    27    1
    17    27    28    1
    18    28    29   ar
    19    29    30   ar
    20    30    31   ar
    21    31    32   ar
    22     6     7   ar
    23     5     8    1
    24     8     9    1
    25     9    10   am
    26    10    11    2
    27    10    12   am
    28    12    33    1
    29    33    34    1
    30    34    35    1
    31    35    36    1
    32    35    37    1
    33     9    13    1
    34     7     2   ar
    35    36    33    1
    36    13     4    1
    37    24    17   ar
    38    32    28   ar
    39    37    33    1
    40     1    14    1
    41     1    15    1
    42    12    16    1
@<TRIPOS>MOLECULE
*****
 37 42 0 0 0
SMALL
GASTEIGER

@<TRIPOS>ATOM
      1 N          57.7480   88.7393   12.6212 N.pl3   1  UNL1       -0.3275
      2 C          59.1608   88.8681   12.1339 C.ar    1  UNL1        0.2134
      3 N          59.8117   90.2180   12.0696 N.ar    1  UNL1       -0.2169
      4 C          61.2245   90.3469   11.5823 C.ar    1  UNL1        0.0810
      5 C          61.9864   89.1259   11.1594 C.ar    1  UNL1        0.0309
      6 C          61.3354   87.7760   11.2237 C.ar    1  UNL1        0.0867
      7 N          59.9226   87.6472   11.7110 N.ar    1  UNL1       -0.2141
      8 C          63.3550   89.5605   10.7258 C.3     1  UNL1        0.1248
      9 N          63.4390   91.0501   10.8808 N.am    1  UNL1       -0.2543
     10 C          64.6305   91.9039   10.5624 C.2     1  UNL1        0.3044
     11 O          65.8860   91.2734   10.0369 O.2     1  UNL1       -0.2526
     12 N          64.5665   93.3882   10.7694 N.am    1  UNL1       -0.2919
     13 C          62.1223   91.5361   11.4102 C.3     1  UNL1        0.1409
     14 H          57.2480   89.5406   12.8988 H       1  UNL1        0.1452
     15 H          57.3207   87.8533   12.6634 H       1  UNL1        0.1452
     16 H          63.7424   93.8020   11.1143 H       1  UNL1        0.1508
     17 C          62.0972   86.5550   10.8007 C.ar    1  UNL1        0.0621
     18 C          62.1337   86.1573    9.3549 C.ar    1  UNL1        0.0629
     19 CL         61.4085   86.9806    8.3321 Cl      1  UNL1       -0.0821
     20 C          62.8955   84.9363    8.9318 C.ar    1  UNL1        0.0230
     21 C          63.6207   84.1131    9.9547 C.ar    1  UNL1        0.0615
     22 CL         64.3824   82.8921    9.5317 Cl      1  UNL1       -0.0821
     23 C          63.5842   84.5108   11.4006 C.ar    1  UNL1        0.0484
     24 C          62.8224   85.7318   11.8236 C.ar    1  UNL1        0.1417
     25 O          62.7859   86.1295   13.2694 O.3     1  UNL1       -0.4732
     26 C          63.7966   85.5707   14.2267 C.3     1  UNL1        0.2316
     27 C          64.1030   86.2975   15.5026 C.3     1  UNL1        0.1746
     28 N          63.8995   87.7811   15.5882 N.ar    1  UNL1       -0.2455
     29 C          64.3954   88.7974   14.6027 C.ar    1  UNL1        0.0968
     30 C          63.9667   90.1534   15.0798 C.ar    1  UNL1        0.0427
     31 C          63.2058   89.9751   16.3601 C.ar    1  UNL1        0.1217
     32 N          63.1643   88.5090   16.6743 N.ar    1  UNL1       -0.1675
     33 C          65.7580   94.2419   10.4510 C.3     1  UNL1        0.0582
     34 C          66.8758   94.1733    9.4530 C.3     1  UNL1        0.0182
     35 C          67.4431   95.4493   10.0007 C.3     1  UNL1        0.0047
     36 C          66.3254   95.5179   10.9987 C.3     1  UNL1        0.0182
     37 C          66.5070   95.0742   10.4886 C.3     1  UNL1        0.0182
@<TRIPOS>BOND
     1     1     2    1
     2     2     3   ar
     3     3     4   ar
     4     4     5   ar
     5     5     6   ar
     6     6    17    1
     7    17    18   ar
     8    18    19    1
     9    18    20   ar
    10    20    21   ar
    11    21    22    1
    12    21    23   ar
    13    23    24   ar
    14    24    25    1
    15    25    26    1
    16    26    27    1
    17    27    28    1
    18    28    29   ar
    19    29    30   ar
    20    30    31   ar
    21    31    32   ar
    22     6     7   ar
    23     5     8    1
    24     8     9    1
    25     9    10   am
    26    10    11    2
    27    10    12   am
    28    12    33    1
    29    33    34    1
    30    34    35    1
    31    35    36    1
    32    35    37    1
    33     9    13    1
    34     7     2   ar
    35    36    33    1
    36    13     4    1
    37    24    17   ar
    38    32    28   ar
    39    37    33    1
    40     1    14    1
    41     1    15    1
    42    12    16    1
