@<TRIPOS>MOLECULE
*****
 31 34 0 0 0
SMALL
GASTEIGER

@<TRIPOS>ATOM
      1 C          63.1255   86.3454   17.7225 C.3     1  UNL1        0.0723
      2 C          63.0101   85.6992   16.3737 C.ar    1  UNL1        0.1268
      3 N          62.6354   84.2508   16.2656 N.ar    1  UNL1       -0.2318
      4 C          62.5200   83.6046   14.9169 C.ar    1  UNL1        0.0871
      5 C          62.1452   82.1562   14.8088 C.ar    1  UNL1        0.0193
      6 C          62.0298   81.5100   13.4601 C.ar    1  UNL1        0.0015
      7 C          62.2892   82.3122   12.2194 C.ar    1  UNL1        0.0041
      8 C          62.6639   83.7606   12.3275 C.ar    1  UNL1        0.0775
      9 C          62.7793   84.4068   13.6762 C.ar    1  UNL1        0.0781
     10 C          63.1540   85.8552   13.7843 C.ar    1  UNL1        0.2669
     11 O          63.4134   86.6574   12.5437 O.2     1  UNL1       -0.2666
     12 N          63.2694   86.5014   15.1331 N.ar    1  UNL1       -0.2626
     13 C          63.6442   87.9498   15.2412 C.ar    1  UNL1        0.0681
     14 C          63.1018   88.7830   16.3644 C.ar    1  UNL1        0.0208
     15 C          63.4765   90.2314   16.4726 C.ar    1  UNL1        0.0384
     16 C          64.3936   90.8466   15.4575 C.ar    1  UNL1        0.1386
     17 C          64.9360   90.0134   14.3343 C.ar    1  UNL1        0.0384
     18 C          64.5613   88.5651   14.2261 C.ar    1  UNL1        0.0208
     19 O          64.7684   92.2951   15.5657 O.3     1  UNL1       -0.4754
     20 C          66.1570   92.7388   15.2126 C.3     1  UNL1        0.2068
     21 C          66.3984   93.5165   13.9530 C.3     1  UNL1        0.0646
     22 C          65.9679   92.9547   12.6305 C.3     1  UNL1        0.0759
     23 N          66.6398   93.4082   11.3684 N.3     1  UNL1       -0.2726
     24 C          66.6226   94.8011   10.8119 C.3     1  UNL1        0.0721
     25 C          67.4189   94.8024    9.5408 C.3     1  UNL1        0.0188
     26 C          67.9284   93.4102    9.3116 C.3     1  UNL1        0.0188
     27 C          67.4468   92.5486   10.4412 C.3     1  UNL1        0.0721
     28 C          62.9232   84.5628   11.0868 C.3     1  UNL1        0.4188
     29 F          63.1826   85.3650    9.8462 F       1  UNL1       -0.1659
     30 F          64.3295   84.0426   11.0444 F       1  UNL1       -0.1659
     31 F          61.5170   85.0830   11.1293 F       1  UNL1       -0.1659
@<TRIPOS>BOND
     1     1     2    1
     2     2     3   ar
     3     3     4   ar
     4     4     5   ar
     5     5     6   ar
     6     6     7   ar
     7     7     8   ar
     8     8    28    1
     9    28    29    1
    10    28    30    1
    11    28    31    1
    12     8     9   ar
    13     9    10   ar
    14    10    11    2
    15    10    12   ar
    16    12    13    1
    17    13    14   ar
    18    14    15   ar
    19    15    16   ar
    20    16    19    1
    21    19    20    1
    22    20    21    1
    23    21    22    1
    24    22    23    1
    25    23    24    1
    26    24    25    1
    27    25    26    1
    28    26    27    1
    29    16    17   ar
    30    17    18   ar
    31    12     2   ar
    32    18    13   ar
    33     9     4   ar
    34    27    23    1
@<TRIPOS>MOLECULE
*****
 31 34 0 0 0
SMALL
GASTEIGER

@<TRIPOS>ATOM
      1 C          62.4280   89.3750   15.4361 C.3     1  UNL1        0.0723
      2 C          63.4923   90.3001   14.9248 C.ar    1  UNL1        0.1268
      3 N          64.4319   90.9663   15.8856 N.ar    1  UNL1       -0.2318
      4 C          65.4962   91.8915   15.3742 C.ar    1  UNL1        0.0871
      5 C          66.4358   92.5577   16.3351 C.ar    1  UNL1        0.0193
      6 C          67.5000   93.4828   15.8237 C.ar    1  UNL1        0.0015
      7 C          67.6246   93.7418   14.3515 C.ar    1  UNL1        0.0041
      8 C          66.6850   93.0756   13.3907 C.ar    1  UNL1        0.0775
      9 C          65.6208   92.1505   13.9020 C.ar    1  UNL1        0.0781
     10 C          64.6811   91.4842   12.9412 C.ar    1  UNL1        0.2669
     11 O          64.8057   91.7432   11.4689 O.2     1  UNL1       -0.2666
     12 N          63.6169   90.5591   13.4525 N.ar    1  UNL1       -0.2626
     13 C          62.6772   89.8928   12.4917 C.ar    1  UNL1        0.0681
     14 C          62.9691   88.5076   11.9959 C.ar    1  UNL1        0.0208
     15 C          62.0295   87.8413   11.0351 C.ar    1  UNL1        0.0384
     16 C          60.7979   88.5604   10.5701 C.ar    1  UNL1        0.1386
     17 C          60.5060   89.9456   11.0659 C.ar    1  UNL1        0.0384
     18 C          61.4456   90.6119   12.0267 C.ar    1  UNL1        0.0208
     19 O          59.8583   87.8941    9.6092 O.3     1  UNL1       -0.4754
     20 C          60.3860   87.2876    8.3428 C.3     1  UNL1        0.2068
     21 C          60.9488   85.8973    8.3548 C.3     1  UNL1        0.0646
     22 C          62.4154   85.6838    8.5856 C.3     1  UNL1        0.0759
     23 N          62.8769   84.7626    9.6756 N.3     1  UNL1       -0.2726
     24 C          62.3623   84.7361   11.0844 C.3     1  UNL1        0.0721
     25 C          63.1013   83.6632   11.8278 C.3     1  UNL1        0.0188
     26 C          64.0727   83.0264   10.8785 C.3     1  UNL1        0.0188
     27 C          63.9339   83.7059    9.5484 C.3     1  UNL1        0.0721
     28 C          66.8096   93.3345   11.9184 C.3     1  UNL1        0.4188
     29 F          66.9342   93.5935   10.4462 F       1  UNL1       -0.1659
     30 F          67.7080   92.1409   11.7845 F       1  UNL1       -0.1659
     31 F          65.9111   94.5282   12.0524 F       1  UNL1       -0.1659
@<TRIPOS>BOND
     1     1     2    1
     2     2     3   ar
     3     3     4   ar
     4     4     5   ar
     5     5     6   ar
     6     6     7   ar
     7     7     8   ar
     8     8    28    1
     9    28    29    1
    10    28    30    1
    11    28    31    1
    12     8     9   ar
    13     9    10   ar
    14    10    11    2
    15    10    12   ar
    16    12    13    1
    17    13    14   ar
    18    14    15   ar
    19    15    16   ar
    20    16    19    1
    21    19    20    1
    22    20    21    1
    23    21    22    1
    24    22    23    1
    25    23    24    1
    26    24    25    1
    27    25    26    1
    28    26    27    1
    29    16    17   ar
    30    17    18   ar
    31    12     2   ar
    32    18    13   ar
    33     9     4   ar
    34    27    23    1
@<TRIPOS>MOLECULE
*****
 31 34 0 0 0
SMALL
GASTEIGER

@<TRIPOS>ATOM
      1 C          62.5432   89.2616   15.6120 C.3     1  UNL1        0.0723
      2 C          63.5539   90.2009   15.0234 C.ar    1  UNL1        0.1268
      3 N          64.5041   90.9380   15.9200 N.ar    1  UNL1       -0.2318
      4 C          65.5148   91.8773   15.3314 C.ar    1  UNL1        0.0871
      5 C          66.4649   92.6144   16.2280 C.ar    1  UNL1        0.0193
      6 C          67.4756   93.5536   15.6394 C.ar    1  UNL1        0.0015
      7 C          67.5362   93.7556   14.1543 C.ar    1  UNL1        0.0041
      8 C          66.5860   93.0185   13.2578 C.ar    1  UNL1        0.0775
      9 C          65.5754   92.0793   13.8463 C.ar    1  UNL1        0.0781
     10 C          64.6252   91.3421   12.9498 C.ar    1  UNL1        0.2669
     11 O          64.6857   91.5441   11.4647 O.2     1  UNL1       -0.2666
     12 N          63.6145   90.4029   13.5383 N.ar    1  UNL1       -0.2626
     13 C          62.6643   89.6657   12.6418 C.ar    1  UNL1        0.0681
     14 C          63.0619   88.3455   12.0511 C.ar    1  UNL1        0.0208
     15 C          62.1118   87.6083   11.1546 C.ar    1  UNL1        0.0384
     16 C          60.7641   88.1913   10.8487 C.ar    1  UNL1        0.1386
     17 C          60.3664   89.5116   11.4394 C.ar    1  UNL1        0.0384
     18 C          61.3165   90.2487   12.3359 C.ar    1  UNL1        0.0208
     19 O          59.8139   87.4541    9.9522 O.3     1  UNL1       -0.4754
     20 C          59.9350   87.5834    8.4627 C.3     1  UNL1        0.2068
     21 C          59.7689   88.9238    7.8102 C.3     1  UNL1        0.0646
     22 C          58.9536   89.0524    6.5577 C.3     1  UNL1        0.0759
     23 N          59.0780   90.2798    5.7046 N.3     1  UNL1       -0.2726
     24 C          60.3500   90.8281    5.1287 C.3     1  UNL1        0.0721
     25 C          60.0105   92.0617    4.3457 C.3     1  UNL1        0.0188
     26 C          58.5286   92.2758    4.4376 C.3     1  UNL1        0.0188
     27 C          57.9524   91.1745    5.2774 C.3     1  UNL1        0.0721
     28 C          66.6466   93.2205   11.7727 C.3     1  UNL1        0.4188
     29 F          66.7071   93.4226   10.2876 F       1  UNL1       -0.1659
     30 F          65.6671   94.3508   11.8865 F       1  UNL1       -0.1659
     31 F          67.6261   92.0902   11.6588 F       1  UNL1       -0.1659
@<TRIPOS>BOND
     1     1     2    1
     2     2     3   ar
     3     3     4   ar
     4     4     5   ar
     5     5     6   ar
     6     6     7   ar
     7     7     8   ar
     8     8    28    1
     9    28    29    1
    10    28    30    1
    11    28    31    1
    12     8     9   ar
    13     9    10   ar
    14    10    11    2
    15    10    12   ar
    16    12    13    1
    17    13    14   ar
    18    14    15   ar
    19    15    16   ar
    20    16    19    1
    21    19    20    1
    22    20    21    1
    23    21    22    1
    24    22    23    1
    25    23    24    1
    26    24    25    1
    27    25    26    1
    28    26    27    1
    29    16    17   ar
    30    17    18   ar
    31    12     2   ar
    32    18    13   ar
    33     9     4   ar
    34    27    23    1
@<TRIPOS>MOLECULE
*****
 31 34 0 0 0
SMALL
GASTEIGER

@<TRIPOS>ATOM
      1 C          62.3338   89.1839   11.8103 C.3     1  UNL1        0.0723
      2 C          63.3965   90.2128   12.0594 C.ar    1  UNL1        0.1268
      3 N          63.6583   91.2824   11.0409 N.ar    1  UNL1       -0.2318
      4 C          64.7211   92.3113   11.2900 C.ar    1  UNL1        0.0871
      5 C          64.9829   93.3808   10.2714 C.ar    1  UNL1        0.0193
      6 C          66.0456   94.4097   10.5206 C.ar    1  UNL1        0.0015
      7 C          66.8464   94.3690   11.7883 C.ar    1  UNL1        0.0041
      8 C          66.5846   93.2995   12.8068 C.ar    1  UNL1        0.0775
      9 C          65.5219   92.2706   12.5577 C.ar    1  UNL1        0.0781
     10 C          65.2600   91.2010   13.5762 C.ar    1  UNL1        0.2669
     11 O          66.0608   91.1603   14.8439 O.2     1  UNL1       -0.2666
     12 N          64.1973   90.1721   13.3271 N.ar    1  UNL1       -0.2626
     13 C          63.9354   89.1025   14.3457 C.ar    1  UNL1        0.0681
     14 C          63.2446   89.4451   15.6323 C.ar    1  UNL1        0.0208
     15 C          62.9827   88.3756   16.6508 C.ar    1  UNL1        0.0384
     16 C          63.4115   86.9635   16.3827 C.ar    1  UNL1        0.1386
     17 C          64.1024   86.6209   15.0961 C.ar    1  UNL1        0.0384
     18 C          64.3643   87.6904   14.0776 C.ar    1  UNL1        0.0208
     19 O          63.1496   85.8939   17.4013 O.3     1  UNL1       -0.4754
     20 C          62.7348   84.5221   16.9586 C.3     1  UNL1        0.2068
     21 C          62.3240   84.2855   15.5355 C.3     1  UNL1        0.0646
     22 C          62.8450   83.0907   14.7932 C.3     1  UNL1        0.0759
     23 N          63.2087   83.2087   13.3428 N.3     1  UNL1       -0.2726
     24 C          64.1694   82.3280   12.6001 C.3     1  UNL1        0.0721
     25 C          64.2300   82.8031   11.1787 C.3     1  UNL1        0.0188
     26 C          63.3068   83.9776   11.0427 C.3     1  UNL1        0.0188
     27 C          62.6756   84.2282   12.3803 C.3     1  UNL1        0.0721
     28 C          67.3854   93.2588   14.0745 C.3     1  UNL1        0.4188
     29 F          68.1862   93.2181   15.3422 F       1  UNL1       -0.1659
     30 F          66.4436   94.2438   14.7011 F       1  UNL1       -0.1659
     31 F          68.3272   92.2737   13.4479 F       1  UNL1       -0.1659
@<TRIPOS>BOND
     1     1     2    1
     2     2     3   ar
     3     3     4   ar
     4     4     5   ar
     5     5     6   ar
     6     6     7   ar
     7     7     8   ar
     8     8    28    1
     9    28    29    1
    10    28    30    1
    11    28    31    1
    12     8     9   ar
    13     9    10   ar
    14    10    11    2
    15    10    12   ar
    16    12    13    1
    17    13    14   ar
    18    14    15   ar
    19    15    16   ar
    20    16    19    1
    21    19    20    1
    22    20    21    1
    23    21    22    1
    24    22    23    1
    25    23    24    1
    26    24    25    1
    27    25    26    1
    28    26    27    1
    29    16    17   ar
    30    17    18   ar
    31    12     2   ar
    32    18    13   ar
    33     9     4   ar
    34    27    23    1
@<TRIPOS>MOLECULE
*****
 31 34 0 0 0
SMALL
GASTEIGER

@<TRIPOS>ATOM
      1 C          63.4509   86.0624   16.4420 C.3     1  UNL1        0.0723
      2 C          63.3794   85.2201   15.2028 C.ar    1  UNL1        0.1268
      3 N          63.1891   83.7365   15.3143 N.ar    1  UNL1       -0.2318
      4 C          63.1176   82.8942   14.0750 C.ar    1  UNL1        0.0871
      5 C          62.9272   81.4106   14.1865 C.ar    1  UNL1        0.0193
      6 C          62.8558   80.5685   12.9473 C.ar    1  UNL1        0.0015
      7 C          62.9746   81.2100   11.5967 C.ar    1  UNL1        0.0041
      8 C          63.1650   82.6936   11.4852 C.ar    1  UNL1        0.0775
      9 C          63.2365   83.5358   12.7244 C.ar    1  UNL1        0.0781
     10 C          63.4268   85.0195   12.6129 C.ar    1  UNL1        0.2669
     11 O          63.5457   85.6610   11.2623 O.2     1  UNL1       -0.2666
     12 N          63.4983   85.8617   13.8521 N.ar    1  UNL1       -0.2626
     13 C          63.6887   87.3454   13.7407 C.ar    1  UNL1        0.0681
     14 C          63.1129   88.0898   12.5726 C.ar    1  UNL1        0.0208
     15 C          63.3032   89.5734   12.4611 C.ar    1  UNL1        0.0384
     16 C          64.0693   90.3127   13.5178 C.ar    1  UNL1        0.1386
     17 C          64.6451   89.5684   14.6858 C.ar    1  UNL1        0.0384
     18 C          64.4547   88.0847   14.7973 C.ar    1  UNL1        0.0208
     19 O          64.2597   91.7965   13.4063 O.3     1  UNL1       -0.4754
     20 C          65.4375   92.3474   12.6585 C.3     1  UNL1        0.2068
     21 C          65.3902   92.4612   11.1636 C.3     1  UNL1        0.0646
     22 C          66.6187   92.8640   10.4029 C.3     1  UNL1        0.0759
     23 N          66.8240   94.2984   10.0152 N.3     1  UNL1       -0.2726
     24 C          67.4141   94.7874    8.7256 C.3     1  UNL1        0.0721
     25 C          67.4301   96.2869    8.7623 C.3     1  UNL1        0.0188
     26 C          66.8500   96.7247   10.0745 C.3     1  UNL1        0.0188
     27 C          66.4754   95.4957   10.8488 C.3     1  UNL1        0.0721
     28 C          63.2839   83.3352   10.1345 C.3     1  UNL1        0.4188
     29 F          63.4028   83.9767    8.7838 F       1  UNL1       -0.1659
     30 F          61.8777   83.8439   10.2524 F       1  UNL1       -0.1659
     31 F          64.6900   82.8264   10.0166 F       1  UNL1       -0.1659
@<TRIPOS>BOND
     1     1     2    1
     2     2     3   ar
     3     3     4   ar
     4     4     5   ar
     5     5     6   ar
     6     6     7   ar
     7     7     8   ar
     8     8    28    1
     9    28    29    1
    10    28    30    1
    11    28    31    1
    12     8     9   ar
    13     9    10   ar
    14    10    11    2
    15    10    12   ar
    16    12    13    1
    17    13    14   ar
    18    14    15   ar
    19    15    16   ar
    20    16    19    1
    21    19    20    1
    22    20    21    1
    23    21    22    1
    24    22    23    1
    25    23    24    1
    26    24    25    1
    27    25    26    1
    28    26    27    1
    29    16    17   ar
    30    17    18   ar
    31    12     2   ar
    32    18    13   ar
    33     9     4   ar
    34    27    23    1
@<TRIPOS>MOLECULE
*****
 31 34 0 0 0
SMALL
GASTEIGER

@<TRIPOS>ATOM
      1 C          63.3323   85.9611   16.4852 C.3     1  UNL1        0.0723
      2 C          63.2902   85.0830   15.2698 C.ar    1  UNL1        0.1268
      3 N          63.0810   83.6052   15.4191 N.ar    1  UNL1       -0.2318
      4 C          63.0389   82.7271   14.2037 C.ar    1  UNL1        0.0871
      5 C          62.8297   81.2493   14.3530 C.ar    1  UNL1        0.0193
      6 C          62.7877   80.3713   13.1376 C.ar    1  UNL1        0.0015
      7 C          62.9548   80.9710   11.7729 C.ar    1  UNL1        0.0041
      8 C          63.1640   82.4488   11.6236 C.ar    1  UNL1        0.0775
      9 C          63.2061   83.3268   12.8390 C.ar    1  UNL1        0.0781
     10 C          63.4153   84.8047   12.6897 C.ar    1  UNL1        0.2669
     11 O          63.5824   85.4044   11.3250 O.2     1  UNL1       -0.2666
     12 N          63.4573   85.6827   13.9051 N.ar    1  UNL1       -0.2626
     13 C          63.6665   87.1606   13.7558 C.ar    1  UNL1        0.0681
     14 C          63.0746   87.8874   12.5847 C.ar    1  UNL1        0.0208
     15 C          63.2838   89.3651   12.4355 C.ar    1  UNL1        0.0384
     16 C          64.0849   90.1162   13.4572 C.ar    1  UNL1        0.1386
     17 C          64.6768   89.3894   14.6283 C.ar    1  UNL1        0.0384
     18 C          64.4677   87.9117   14.7776 C.ar    1  UNL1        0.0208
     19 O          64.2941   91.5941   13.3080 O.3     1  UNL1       -0.4754
     20 C          64.5692   92.1797   11.9547 C.3     1  UNL1        0.2068
     21 C          65.7538   93.0773   11.7526 C.3     1  UNL1        0.0646
     22 C          67.1174   92.6290   12.1882 C.3     1  UNL1        0.0759
     23 N          67.5083   92.7133   13.6339 N.3     1  UNL1       -0.2726
     24 C          66.8246   93.5359   14.6857 C.3     1  UNL1        0.0721
     25 C          67.5452   93.3208   15.9835 C.3     1  UNL1        0.0188
     26 C          68.6744   92.3653   15.7340 C.3     1  UNL1        0.0188
     27 C          68.6515   91.9899   14.2818 C.3     1  UNL1        0.0721
     28 C          63.3311   83.0485   10.2589 C.3     1  UNL1        0.4188
     29 F          63.4983   83.6483    8.8942 F       1  UNL1       -0.1659
     30 F          61.9286   83.5770   10.3194 F       1  UNL1       -0.1659
     31 F          64.7337   82.5200   10.1984 F       1  UNL1       -0.1659
@<TRIPOS>BOND
     1     1     2    1
     2     2     3   ar
     3     3     4   ar
     4     4     5   ar
     5     5     6   ar
     6     6     7   ar
     7     7     8   ar
     8     8    28    1
     9    28    29    1
    10    28    30    1
    11    28    31    1
    12     8     9   ar
    13     9    10   ar
    14    10    11    2
    15    10    12   ar
    16    12    13    1
    17    13    14   ar
    18    14    15   ar
    19    15    16   ar
    20    16    19    1
    21    19    20    1
    22    20    21    1
    23    21    22    1
    24    22    23    1
    25    23    24    1
    26    24    25    1
    27    25    26    1
    28    26    27    1
    29    16    17   ar
    30    17    18   ar
    31    12     2   ar
    32    18    13   ar
    33     9     4   ar
    34    27    23    1
@<TRIPOS>MOLECULE
*****
 31 34 0 0 0
SMALL
GASTEIGER

@<TRIPOS>ATOM
      1 C          62.9208   85.5242    8.7764 C.3     1  UNL1        0.0723
      2 C          62.8914   84.7571   10.0651 C.ar    1  UNL1        0.1268
      3 N          62.8856   83.2572   10.0452 N.ar    1  UNL1       -0.2318
      4 C          62.8562   82.4901   11.3340 C.ar    1  UNL1        0.0871
      5 C          62.8504   80.9903   11.3141 C.ar    1  UNL1        0.0193
      6 C          62.8210   80.2233   12.6028 C.ar    1  UNL1        0.0015
      7 C          62.7974   80.9561   13.9114 C.ar    1  UNL1        0.0041
      8 C          62.8031   82.4559   13.9313 C.ar    1  UNL1        0.0775
      9 C          62.8326   83.2230   12.6426 C.ar    1  UNL1        0.0781
     10 C          62.8383   84.7229   12.6624 C.ar    1  UNL1        0.2669
     11 O          62.8147   85.4557   13.9710 O.2     1  UNL1       -0.2666
     12 N          62.8677   85.4899   11.3737 N.ar    1  UNL1       -0.2626
     13 C          62.8735   86.9898   11.3936 C.ar    1  UNL1        0.0681
     14 C          62.3287   87.7574   10.2257 C.ar    1  UNL1        0.0208
     15 C          62.3345   89.2572   10.2455 C.ar    1  UNL1        0.0384
     16 C          62.8850   89.9894   11.4332 C.ar    1  UNL1        0.1386
     17 C          63.4298   89.2218   12.6011 C.ar    1  UNL1        0.0384
     18 C          63.4240   87.7220   12.5813 C.ar    1  UNL1        0.0208
     19 O          62.8908   91.4893   11.4530 O.3     1  UNL1       -0.4754
     20 C          64.1800   92.2367   11.2816 C.3     1  UNL1        0.2068
     21 C          65.1810   92.2713   12.3982 C.3     1  UNL1        0.0646
     22 C          66.4180   93.1102   12.2708 C.3     1  UNL1        0.0759
     23 N          67.1009   93.2425   10.9418 N.3     1  UNL1       -0.2726
     24 C          68.0035   92.2250   10.3092 C.3     1  UNL1        0.0721
     25 C          68.4616   92.7692    8.9885 C.3     1  UNL1        0.0188
     26 C          67.8421   94.1229    8.8049 C.3     1  UNL1        0.0188
     27 C          67.0011   94.4154   10.0121 C.3     1  UNL1        0.0721
     28 C          62.7795   83.1888   15.2399 C.3     1  UNL1        0.4188
     29 F          62.7559   83.9216   16.5485 F       1  UNL1       -0.1659
     30 F          61.2869   83.3055   15.1476 F       1  UNL1       -0.1659
     31 F          64.2721   83.0721   15.3322 F       1  UNL1       -0.1659
@<TRIPOS>BOND
     1     1     2    1
     2     2     3   ar
     3     3     4   ar
     4     4     5   ar
     5     5     6   ar
     6     6     7   ar
     7     7     8   ar
     8     8    28    1
     9    28    29    1
    10    28    30    1
    11    28    31    1
    12     8     9   ar
    13     9    10   ar
    14    10    11    2
    15    10    12   ar
    16    12    13    1
    17    13    14   ar
    18    14    15   ar
    19    15    16   ar
    20    16    19    1
    21    19    20    1
    22    20    21    1
    23    21    22    1
    24    22    23    1
    25    23    24    1
    26    24    25    1
    27    25    26    1
    28    26    27    1
    29    16    17   ar
    30    17    18   ar
    31    12     2   ar
    32    18    13   ar
    33     9     4   ar
    34    27    23    1
@<TRIPOS>MOLECULE
*****
 31 34 0 0 0
SMALL
GASTEIGER

@<TRIPOS>ATOM
      1 C          64.4744   85.5060   16.7222 C.3     1  UNL1        0.0723
      2 C          64.0633   85.1415   15.3264 C.ar    1  UNL1        0.1268
      3 N          64.0080   83.7007   14.9131 N.ar    1  UNL1       -0.2318
      4 C          63.5969   83.3361   13.5173 C.ar    1  UNL1        0.0871
      5 C          63.5415   81.8953   13.1039 C.ar    1  UNL1        0.0193
      6 C          63.1305   81.5308   11.7081 C.ar    1  UNL1        0.0015
      7 C          62.7749   82.6071   10.7258 C.ar    1  UNL1        0.0041
      8 C          62.8302   84.0479   11.1391 C.ar    1  UNL1        0.0775
      9 C          63.2413   84.4124   12.5349 C.ar    1  UNL1        0.0781
     10 C          63.2966   85.8533   12.9483 C.ar    1  UNL1        0.2669
     11 O          62.9410   86.9296   11.9660 O.2     1  UNL1       -0.2666
     12 N          63.7077   86.2178   14.3441 N.ar    1  UNL1       -0.2626
     13 C          63.7631   87.6587   14.7575 C.ar    1  UNL1        0.0681
     14 C          64.3673   88.6796   13.8396 C.ar    1  UNL1        0.0208
     15 C          64.4227   90.1204   14.2530 C.ar    1  UNL1        0.0384
     16 C          63.8739   90.5403   15.5843 C.ar    1  UNL1        0.1386
     17 C          63.2696   89.5194   16.5022 C.ar    1  UNL1        0.0384
     18 C          63.2142   88.0786   16.0888 C.ar    1  UNL1        0.0208
     19 O          63.9293   91.9812   15.9977 O.3     1  UNL1       -0.4754
     20 C          65.2256   92.5805   16.4563 C.3     1  UNL1        0.2068
     21 C          66.4274   92.5446   15.5595 C.3     1  UNL1        0.0646
     22 C          66.7220   93.7031   14.6534 C.3     1  UNL1        0.0759
     23 N          66.7040   93.5149   13.1654 N.3     1  UNL1       -0.2726
     24 C          67.0724   92.2600   12.4308 C.3     1  UNL1        0.0721
     25 C          66.9105   92.5181   10.9621 C.3     1  UNL1        0.0188
     26 C          66.4422   93.9326   10.7888 C.3     1  UNL1        0.0188
     27 C          66.3145   94.5486   12.1506 C.3     1  UNL1        0.0721
     28 C          62.4746   85.1242   10.1568 C.3     1  UNL1        0.4188
     29 F          62.1189   86.2005    9.1744 F       1  UNL1       -0.1659
     30 F          63.7844   84.9171    9.4557 F       1  UNL1       -0.1659
     31 F          61.1648   85.3313   10.8579 F       1  UNL1       -0.1659
@<TRIPOS>BOND
     1     1     2    1
     2     2     3   ar
     3     3     4   ar
     4     4     5   ar
     5     5     6   ar
     6     6     7   ar
     7     7     8   ar
     8     8    28    1
     9    28    29    1
    10    28    30    1
    11    28    31    1
    12     8     9   ar
    13     9    10   ar
    14    10    11    2
    15    10    12   ar
    16    12    13    1
    17    13    14   ar
    18    14    15   ar
    19    15    16   ar
    20    16    19    1
    21    19    20    1
    22    20    21    1
    23    21    22    1
    24    22    23    1
    25    23    24    1
    26    24    25    1
    27    25    26    1
    28    26    27    1
    29    16    17   ar
    30    17    18   ar
    31    12     2   ar
    32    18    13   ar
    33     9     4   ar
    34    27    23    1
@<TRIPOS>MOLECULE
*****
 31 34 0 0 0
SMALL
GASTEIGER

@<TRIPOS>ATOM
      1 C          62.9358   85.5557    8.8026 C.3     1  UNL1        0.0723
      2 C          62.8956   84.7645   10.0764 C.ar    1  UNL1        0.1268
      3 N          62.8913   83.2654   10.0283 N.ar    1  UNL1       -0.2318
      4 C          62.8511   82.4742   11.3020 C.ar    1  UNL1        0.0871
      5 C          62.8468   80.9750   11.2539 C.ar    1  UNL1        0.0193
      6 C          62.8066   80.1839   12.5277 C.ar    1  UNL1        0.0015
      7 C          62.7707   80.8919   13.8495 C.ar    1  UNL1        0.0041
      8 C          62.7750   82.3911   13.8977 C.ar    1  UNL1        0.0775
      9 C          62.8152   83.1822   12.6239 C.ar    1  UNL1        0.0781
     10 C          62.8195   84.6815   12.6720 C.ar    1  UNL1        0.2669
     11 O          62.7836   85.3896   13.9939 O.2     1  UNL1       -0.2666
     12 N          62.8597   85.4726   11.3982 N.ar    1  UNL1       -0.2626
     13 C          62.8640   86.9719   11.4463 C.ar    1  UNL1        0.0681
     14 C          63.4661   87.6828   12.6219 C.ar    1  UNL1        0.0208
     15 C          63.4704   89.1820   12.6700 C.ar    1  UNL1        0.0384
     16 C          62.8726   89.9703   11.5426 C.ar    1  UNL1        0.1386
     17 C          62.2704   89.2593   10.3670 C.ar    1  UNL1        0.0384
     18 C          62.2661   87.7601   10.3189 C.ar    1  UNL1        0.0208
     19 O          62.8769   91.4696   11.5906 O.3     1  UNL1       -0.4754
     20 C          64.1416   92.2057   11.9200 C.3     1  UNL1        0.2068
     21 C          65.1847   92.4149   10.8627 C.3     1  UNL1        0.0646
     22 C          66.5806   92.8019   11.2524 C.3     1  UNL1        0.0759
     23 N          66.9823   92.8046   12.6975 N.3     1  UNL1       -0.2726
     24 C          66.5455   93.7990   13.7322 C.3     1  UNL1        0.0721
     25 C          67.1846   93.4225   15.0360 C.3     1  UNL1        0.0188
     26 C          68.0165   92.1954   14.8071 C.3     1  UNL1        0.0188
     27 C          67.8915   91.8135   13.3618 C.3     1  UNL1        0.0721
     28 C          62.7391   83.0992   15.2195 C.3     1  UNL1        0.4188
     29 F          62.7032   83.8073   16.5414 F       1  UNL1       -0.1659
     30 F          61.2428   83.1697   15.1411 F       1  UNL1       -0.1659
     31 F          64.2354   83.0287   15.2979 F       1  UNL1       -0.1659
@<TRIPOS>BOND
     1     1     2    1
     2     2     3   ar
     3     3     4   ar
     4     4     5   ar
     5     5     6   ar
     6     6     7   ar
     7     7     8   ar
     8     8    28    1
     9    28    29    1
    10    28    30    1
    11    28    31    1
    12     8     9   ar
    13     9    10   ar
    14    10    11    2
    15    10    12   ar
    16    12    13    1
    17    13    14   ar
    18    14    15   ar
    19    15    16   ar
    20    16    19    1
    21    19    20    1
    22    20    21    1
    23    21    22    1
    24    22    23    1
    25    23    24    1
    26    24    25    1
    27    25    26    1
    28    26    27    1
    29    16    17   ar
    30    17    18   ar
    31    12     2   ar
    32    18    13   ar
    33     9     4   ar
    34    27    23    1
