@<TRIPOS>MOLECULE
*****
 36 41 0 0 0
SMALL
GASTEIGER

@<TRIPOS>ATOM
      1 C          62.8216   89.3561   12.5466 C.3     1  UNL1        0.1412
      2 N          63.8078   90.4792   12.4196 N.3     1  UNL1       -0.2630
      3 C          64.6313   90.7633   13.6408 C.3     1  UNL1        0.0742
      4 C          65.6906   91.8081   13.8323 C.3     1  UNL1        0.0347
      5 C          66.1877   92.8267   12.8499 C.3     1  UNL1        0.0735
      6 N          65.7486   93.0523   11.4335 N.3     1  UNL1       -0.2727
      7 C          64.7038   92.3149   10.6495 C.3     1  UNL1        0.0896
      8 C          63.8401   91.1697   11.0885 C.3     1  UNL1        0.0902
      9 C          66.4466   94.1620   10.7046 C.3     1  UNL1        0.0575
     10 C          66.4555   95.6584   10.8085 C.3     1  UNL1        0.0160
     11 C          67.4337   95.7315    9.6738 C.3     1  UNL1        0.0028
     12 C          67.4250   94.2351    9.5698 C.3     1  UNL1        0.0160
     13 C          63.2798   88.0042   13.0072 C.ar    1  UNL1       -0.0005
     14 C          64.1349   87.8795   14.2332 C.ar    1  UNL1       -0.0028
     15 C          64.5931   86.5275   14.6938 C.ar    1  UNL1       -0.0026
     16 C          64.1962   85.3001   13.9283 C.ar    1  UNL1        0.0021
     17 C          63.3411   85.4248   12.7022 C.ar    1  UNL1       -0.0026
     18 C          62.8829   86.7767   12.2416 C.ar    1  UNL1       -0.0028
     19 C          64.6544   83.9481   14.3889 C.3     1  UNL1        0.1556
     20 N          63.8578   82.7265   14.0381 N.ar    1  UNL1       -0.2255
     21 C          64.1403   81.7851   12.9051 C.ar    1  UNL1        0.1975
     22 N          63.0958   80.7085   12.9255 N.ar    1  UNL1       -0.2007
     23 C          62.1678   80.9847   14.0712 C.ar    1  UNL1        0.2210
     24 N          62.6388   82.2319   14.7588 N.ar    1  UNL1       -0.1448
     25 N          60.7625   89.4936   10.8477 N.ar    1  UNL1       -0.2108
     26 N          59.2993   89.7977   10.9769 N.ar    1  UNL1       -0.0428
     27 N          59.0098   90.0771   12.4219 N.ar    1  UNL1       -0.0229
     28 N          60.2940   89.9457   13.1858 N.ar    1  UNL1       -0.1110
     29 C          61.3773   89.5851   12.2129 C.ar    1  UNL1        0.1798
     30 C          61.4842   89.1571    9.5765 C.3     1  UNL1        0.1570
     31 C          60.6006   85.2951    7.4424 C.ar    1  UNL1       -0.0000
     32 C          61.9358   85.5038    8.0935 C.ar    1  UNL1       -0.0003
     33 C          62.2303   86.7911    8.8049 C.ar    1  UNL1       -0.0023
     34 C          61.1897   87.8697    8.8651 C.ar    1  UNL1        0.0022
     35 C          59.8546   87.6611    8.2140 C.ar    1  UNL1       -0.0023
     36 C          59.5601   86.3738    7.5027 C.ar    1  UNL1       -0.0003
@<TRIPOS>BOND
     1    31    32   ar
     2    32    33   ar
     3    33    34   ar
     4    34    30    1
     5    30    25    1
     6    25    26   ar
     7    26    27   ar
     8    27    28   ar
     9    28    29   ar
    10    29     1    1
    11     1    13    1
    12    13    14   ar
    13    14    15   ar
    14    15    16   ar
    15    16    19    1
    16    19    20    1
    17    20    21   ar
    18    21    22   ar
    19    22    23   ar
    20    23    24   ar
    21    16    17   ar
    22    17    18   ar
    23     1     2    1
    24     2     3    1
    25     3     4    1
    26     4     5    1
    27     5     6    1
    28     6     9    1
    29     9    10    1
    30    10    11    1
    31    11    12    1
    32     6     7    1
    33     7     8    1
    34    34    35   ar
    35    35    36   ar
    36    36    31   ar
    37    29    25   ar
    38    18    13   ar
    39     8     2    1
    40    24    20   ar
    41    12     9    1
@<TRIPOS>MOLECULE
*****
 36 41 0 0 0
SMALL
GASTEIGER

@<TRIPOS>ATOM
      1 C          63.2220   89.7360   13.3865 C.3     1  UNL1        0.1412
      2 N          62.3137   89.1829   12.3286 N.3     1  UNL1       -0.2630
      3 C          60.9182   89.7331   12.3165 C.3     1  UNL1        0.0742
      4 C          59.7853   89.3890   11.3954 C.3     1  UNL1        0.0347
      5 C          59.7681   88.4101   10.2592 C.3     1  UNL1        0.0735
      6 N          60.8794   87.5332    9.7631 N.3     1  UNL1       -0.2727
      7 C          62.2826   87.4189   10.2810 C.3     1  UNL1        0.0896
      8 C          62.9208   88.1531   11.4227 C.3     1  UNL1        0.0902
      9 C          60.5433   86.6547    8.5949 C.3     1  UNL1        0.0575
     10 C          59.3178   86.4198    7.7623 C.3     1  UNL1        0.0160
     11 C          60.0678   85.4121    6.9426 C.3     1  UNL1        0.0028
     12 C          61.2933   85.6469    7.7750 C.3     1  UNL1        0.0160
     13 C          64.1146   90.9005   13.0749 C.ar    1  UNL1       -0.0005
     14 C          64.0829   91.5261   11.7119 C.ar    1  UNL1       -0.0028
     15 C          64.9755   92.6907   11.4004 C.ar    1  UNL1       -0.0026
     16 C          65.8998   93.2295   12.4517 C.ar    1  UNL1        0.0021
     17 C          65.9315   92.6039   13.8146 C.ar    1  UNL1       -0.0026
     18 C          65.0389   91.4394   14.1262 C.ar    1  UNL1       -0.0028
     19 C          66.7924   94.3941   12.1400 C.3     1  UNL1        0.1556
     20 N          66.8523   94.9409   10.7445 N.ar    1  UNL1       -0.2255
     21 C          65.9990   96.0440   10.1925 C.ar    1  UNL1        0.1975
     22 N          66.3954   96.2654    8.7628 N.ar    1  UNL1       -0.2007
     23 C          67.4936   95.2990    8.4313 C.ar    1  UNL1        0.2210
     24 N          67.7760   94.4804    9.6561 N.ar    1  UNL1       -0.1448
     25 N          63.7428   87.7556   15.1047 N.ar    1  UNL1       -0.2108
     26 N          63.5683   87.5595   16.5815 N.ar    1  UNL1       -0.0428
     27 N          62.9553   88.8069   17.1456 N.ar    1  UNL1       -0.0229
     28 N          62.7510   89.7741   16.0174 N.ar    1  UNL1       -0.1110
     29 C          63.2377   89.1244   14.7560 C.ar    1  UNL1        0.1798
     30 C          64.3209   86.7583   14.1450 C.3     1  UNL1        0.1570
     31 C          62.5145   82.6504   13.8096 C.ar    1  UNL1       -0.0000
     32 C          62.7960   83.4494   12.5716 C.ar    1  UNL1       -0.0003
     33 C          63.3981   84.8186   12.6834 C.ar    1  UNL1       -0.0023
     34 C          63.7187   85.3889   14.0332 C.ar    1  UNL1        0.0022
     35 C          63.4373   84.5900   15.2711 C.ar    1  UNL1       -0.0023
     36 C          62.8352   83.2208   15.1593 C.ar    1  UNL1       -0.0003
@<TRIPOS>BOND
     1    31    32   ar
     2    32    33   ar
     3    33    34   ar
     4    34    30    1
     5    30    25    1
     6    25    26   ar
     7    26    27   ar
     8    27    28   ar
     9    28    29   ar
    10    29     1    1
    11     1    13    1
    12    13    14   ar
    13    14    15   ar
    14    15    16   ar
    15    16    19    1
    16    19    20    1
    17    20    21   ar
    18    21    22   ar
    19    22    23   ar
    20    23    24   ar
    21    16    17   ar
    22    17    18   ar
    23     1     2    1
    24     2     3    1
    25     3     4    1
    26     4     5    1
    27     5     6    1
    28     6     9    1
    29     9    10    1
    30    10    11    1
    31    11    12    1
    32     6     7    1
    33     7     8    1
    34    34    35   ar
    35    35    36   ar
    36    36    31   ar
    37    29    25   ar
    38    18    13   ar
    39     8     2    1
    40    24    20   ar
    41    12     9    1
@<TRIPOS>MOLECULE
*****
 36 41 0 0 0
SMALL
GASTEIGER

@<TRIPOS>ATOM
      1 C          62.7199   89.3518   12.5013 C.3     1  UNL1        0.1412
      2 N          63.1842   87.9944   12.9392 N.3     1  UNL1       -0.2630
      3 C          64.0949   87.9712   14.1309 C.3     1  UNL1        0.0742
      4 C          64.7228   86.7874   14.8053 C.3     1  UNL1        0.0347
      5 C          64.5949   85.3348   14.4545 C.3     1  UNL1        0.0735
      6 N          63.8077   84.7068   13.3428 N.3     1  UNL1       -0.2727
      7 C          62.9539   85.3765   12.3072 C.3     1  UNL1        0.0896
      8 C          62.6765   86.8397   12.1276 C.3     1  UNL1        0.0902
      9 C          63.8845   83.2114   13.2550 C.3     1  UNL1        0.0575
     10 C          64.4277   82.2340   12.2550 C.3     1  UNL1        0.0160
     11 C          63.9931   81.0964   13.1308 C.3     1  UNL1        0.0028
     12 C          63.4498   82.0736   14.1308 C.3     1  UNL1        0.0160
     13 C          63.7032   90.4782   12.3815 C.ar    1  UNL1       -0.0005
     14 C          64.5133   90.8965   13.5726 C.ar    1  UNL1       -0.0028
     15 C          65.4965   92.0230   13.4527 C.ar    1  UNL1       -0.0026
     16 C          65.6697   92.7311   12.1418 C.ar    1  UNL1        0.0021
     17 C          64.8596   92.3128   10.9507 C.ar    1  UNL1       -0.0026
     18 C          63.8764   91.1864   11.0705 C.ar    1  UNL1       -0.0028
     19 C          66.6530   93.8575   12.0219 C.3     1  UNL1        0.1556
     20 N          66.8114   94.5792   10.7165 N.ar    1  UNL1       -0.2255
     21 C          66.0142   95.7661   10.2630 C.ar    1  UNL1        0.1975
     22 N          66.5049   96.1611    8.9015 N.ar    1  UNL1       -0.2007
     23 C          67.6052   95.2183    8.5138 C.ar    1  UNL1        0.2210
     24 N          67.7946   94.2407    9.6356 N.ar    1  UNL1       -0.1448
     25 N          60.6483   89.5213   10.8205 N.ar    1  UNL1       -0.2108
     26 N          59.1850   89.8164   10.9671 N.ar    1  UNL1       -0.0428
     27 N          58.9046   90.0602   12.4203 N.ar    1  UNL1       -0.0229
     28 N          60.1946   89.9159   13.1719 N.ar    1  UNL1       -0.1110
     29 C          61.2724   89.5828   12.1832 C.ar    1  UNL1        0.1798
     30 C          61.3624   89.2180    9.5367 C.3     1  UNL1        0.1570
     31 C          60.6663   85.2933    7.4481 C.ar    1  UNL1       -0.0000
     32 C          61.9785   85.5609    8.1239 C.ar    1  UNL1       -0.0003
     33 C          62.2105   86.8691    8.8200 C.ar    1  UNL1       -0.0023
     34 C          61.1303   87.9097    8.8405 C.ar    1  UNL1        0.0022
     35 C          59.8182   87.6421    8.1648 C.ar    1  UNL1       -0.0023
     36 C          59.5862   86.3339    7.4686 C.ar    1  UNL1       -0.0003
@<TRIPOS>BOND
     1    31    32   ar
     2    32    33   ar
     3    33    34   ar
     4    34    30    1
     5    30    25    1
     6    25    26   ar
     7    26    27   ar
     8    27    28   ar
     9    28    29   ar
    10    29     1    1
    11     1    13    1
    12    13    14   ar
    13    14    15   ar
    14    15    16   ar
    15    16    19    1
    16    19    20    1
    17    20    21   ar
    18    21    22   ar
    19    22    23   ar
    20    23    24   ar
    21    16    17   ar
    22    17    18   ar
    23     1     2    1
    24     2     3    1
    25     3     4    1
    26     4     5    1
    27     5     6    1
    28     6     9    1
    29     9    10    1
    30    10    11    1
    31    11    12    1
    32     6     7    1
    33     7     8    1
    34    34    35   ar
    35    35    36   ar
    36    36    31   ar
    37    29    25   ar
    38    18    13   ar
    39     8     2    1
    40    24    20   ar
    41    12     9    1
@<TRIPOS>MOLECULE
*****
 36 41 0 0 0
SMALL
GASTEIGER

@<TRIPOS>ATOM
      1 C          63.0267   88.9942   12.7907 C.3     1  UNL1        0.1412
      2 N          64.0358   90.0789   13.0252 N.3     1  UNL1       -0.2630
      3 C          64.1297   91.1233   11.9525 C.3     1  UNL1        0.0742
      4 C          65.0286   92.3227   11.8911 C.3     1  UNL1        0.0347
      5 C          66.0554   92.7737   12.8870 C.3     1  UNL1        0.0735
      6 N          66.4371   92.1370   14.1905 N.3     1  UNL1       -0.2727
      7 C          65.8862   90.8919   14.8199 C.3     1  UNL1        0.0896
      8 C          64.8175   89.9760   14.3012 C.3     1  UNL1        0.0902
      9 C          67.5119   92.8381   14.9672 C.3     1  UNL1        0.0575
     10 C          68.6548   92.3966   15.8327 C.3     1  UNL1        0.0160
     11 C          69.0318   93.8296   16.0658 C.3     1  UNL1        0.0028
     12 C          67.8890   94.2712   15.2004 C.3     1  UNL1        0.0160
     13 C          63.3558   87.5743   13.1450 C.ar    1  UNL1       -0.0005
     14 C          64.1794   87.2768   14.3628 C.ar    1  UNL1       -0.0028
     15 C          64.5085   85.8568   14.7170 C.ar    1  UNL1       -0.0026
     16 C          64.0140   84.7344   13.8535 C.ar    1  UNL1        0.0021
     17 C          63.1904   85.0320   12.6357 C.ar    1  UNL1       -0.0026
     18 C          62.8613   86.4518   12.2814 C.ar    1  UNL1       -0.0028
     19 C          64.3432   83.3145   14.2078 C.3     1  UNL1        0.1556
     20 N          63.3349   82.2294   13.9713 N.ar    1  UNL1       -0.2255
     21 C          63.5430   80.9985   13.1398 C.ar    1  UNL1        0.1975
     22 N          62.2781   80.1931   13.1794 N.ar    1  UNL1       -0.2007
     23 C          61.2883   80.9263   14.0353 C.ar    1  UNL1        0.2210
     24 N          61.9415   82.1849   14.5247 N.ar    1  UNL1       -0.1448
     25 N          61.2973   89.1824   10.7612 N.ar    1  UNL1       -0.2108
     26 N          59.8735   89.6326   10.6193 N.ar    1  UNL1       -0.0428
     27 N          59.3847   90.0578   11.9721 N.ar    1  UNL1       -0.0229
     28 N          60.5064   89.8704   12.9502 N.ar    1  UNL1       -0.1110
     29 C          61.6884   89.3294   12.2019 C.ar    1  UNL1        0.1798
     30 C          62.1757   88.6744    9.6565 C.3     1  UNL1        0.1570
     31 C          60.9982   84.9875    7.3607 C.ar    1  UNL1       -0.0000
     32 C          62.3955   85.1284    7.8879 C.ar    1  UNL1       -0.0003
     33 C          62.7879   86.3574    8.6532 C.ar    1  UNL1       -0.0023
     34 C          61.7832   87.4454    8.8912 C.ar    1  UNL1        0.0022
     35 C          60.3860   87.3045    8.3640 C.ar    1  UNL1       -0.0023
     36 C          59.9935   86.0756    7.5988 C.ar    1  UNL1       -0.0003
@<TRIPOS>BOND
     1    31    32   ar
     2    32    33   ar
     3    33    34   ar
     4    34    30    1
     5    30    25    1
     6    25    26   ar
     7    26    27   ar
     8    27    28   ar
     9    28    29   ar
    10    29     1    1
    11     1    13    1
    12    13    14   ar
    13    14    15   ar
    14    15    16   ar
    15    16    19    1
    16    19    20    1
    17    20    21   ar
    18    21    22   ar
    19    22    23   ar
    20    23    24   ar
    21    16    17   ar
    22    17    18   ar
    23     1     2    1
    24     2     3    1
    25     3     4    1
    26     4     5    1
    27     5     6    1
    28     6     9    1
    29     9    10    1
    30    10    11    1
    31    11    12    1
    32     6     7    1
    33     7     8    1
    34    34    35   ar
    35    35    36   ar
    36    36    31   ar
    37    29    25   ar
    38    18    13   ar
    39     8     2    1
    40    24    20   ar
    41    12     9    1
@<TRIPOS>MOLECULE
*****
 36 41 0 0 0
SMALL
GASTEIGER

@<TRIPOS>ATOM
      1 C          63.4682   89.6824   13.1670 C.3     1  UNL1        0.1412
      2 N          64.4131   90.7873   12.7974 N.3     1  UNL1       -0.2630
      3 C          65.4366   91.1425   13.8349 C.3     1  UNL1        0.0742
      4 C          66.5094   92.1890   13.7705 C.3     1  UNL1        0.0347
      5 C          66.8236   93.1386   12.6527 C.3     1  UNL1        0.0735
      6 N          66.1427   93.2763   11.3233 N.3     1  UNL1       -0.2727
      7 C          64.9794   92.4984   10.7832 C.3     1  UNL1        0.0896
      8 C          64.2097   91.3907   11.4394 C.3     1  UNL1        0.0902
      9 C          66.6986   94.3314   10.4136 C.3     1  UNL1        0.0575
     10 C          66.5412   95.8183   10.2929 C.3     1  UNL1        0.0160
     11 C          67.4848   95.8237    9.1270 C.3     1  UNL1        0.0028
     12 C          67.6423   94.3368    9.2475 C.3     1  UNL1        0.0160
     13 C          62.6829   88.9789   12.1001 C.ar    1  UNL1       -0.0005
     14 C          61.7116   89.7473   11.2539 C.ar    1  UNL1       -0.0028
     15 C          60.9263   89.0436   10.1870 C.ar    1  UNL1       -0.0026
     16 C          61.1123   87.5716    9.9663 C.ar    1  UNL1        0.0021
     17 C          62.0837   86.8033   10.8125 C.ar    1  UNL1       -0.0026
     18 C          62.8690   87.5068   11.8794 C.ar    1  UNL1       -0.0028
     19 C          60.3270   86.8680    8.8994 C.3     1  UNL1        0.1556
     20 N          61.0177   85.9280    7.9564 N.ar    1  UNL1       -0.2255
     21 C          62.4638   85.5330    8.0071 C.ar    1  UNL1        0.1975
     22 N          62.7235   84.5788    6.8791 N.ar    1  UNL1       -0.2007
     23 C          61.4378   84.3842    6.1314 C.ar    1  UNL1        0.2210
     24 N          60.3836   85.2181    6.7972 N.ar    1  UNL1       -0.1448
     25 N          63.8310   88.0227   15.2307 N.ar    1  UNL1       -0.2108
     26 N          63.4439   88.0318   16.6798 N.ar    1  UNL1       -0.0428
     27 N          62.6824   89.2959   16.9483 N.ar    1  UNL1       -0.0229
     28 N          62.5988   90.0681   15.6650 N.ar    1  UNL1       -0.1110
     29 C          63.3087   89.2813   14.6035 C.ar    1  UNL1        0.1798
     30 C          64.6046   86.9445   14.5314 C.3     1  UNL1        0.1570
     31 C          63.0489   82.7221   14.4949 C.ar    1  UNL1       -0.0000
     32 C          64.0690   83.1543   13.4836 C.ar    1  UNL1       -0.0003
     33 C          64.5875   84.5618   13.4958 C.ar    1  UNL1       -0.0023
     34 C          64.0860   85.5370   14.5192 C.ar    1  UNL1        0.0022
     35 C          63.0660   85.1048   15.5305 C.ar    1  UNL1       -0.0023
     36 C          62.5475   83.6973   15.5183 C.ar    1  UNL1       -0.0003
@<TRIPOS>BOND
     1    31    32   ar
     2    32    33   ar
     3    33    34   ar
     4    34    30    1
     5    30    25    1
     6    25    26   ar
     7    26    27   ar
     8    27    28   ar
     9    28    29   ar
    10    29     1    1
    11     1    13    1
    12    13    14   ar
    13    14    15   ar
    14    15    16   ar
    15    16    19    1
    16    19    20    1
    17    20    21   ar
    18    21    22   ar
    19    22    23   ar
    20    23    24   ar
    21    16    17   ar
    22    17    18   ar
    23     1     2    1
    24     2     3    1
    25     3     4    1
    26     4     5    1
    27     5     6    1
    28     6     9    1
    29     9    10    1
    30    10    11    1
    31    11    12    1
    32     6     7    1
    33     7     8    1
    34    34    35   ar
    35    35    36   ar
    36    36    31   ar
    37    29    25   ar
    38    18    13   ar
    39     8     2    1
    40    24    20   ar
    41    12     9    1
@<TRIPOS>MOLECULE
*****
 36 41 0 0 0
SMALL
GASTEIGER

@<TRIPOS>ATOM
      1 C          63.3510   89.1597   13.0185 C.3     1  UNL1        0.1412
      2 N          62.3023   89.4181   11.9775 N.3     1  UNL1       -0.2630
      3 C          61.1237   90.2291   12.4284 C.3     1  UNL1        0.0742
      4 C          59.9225   90.6535   11.6364 C.3     1  UNL1        0.0347
      5 C          59.6034   90.3719   10.1982 C.3     1  UNL1        0.0735
      6 N          60.4065   89.5962    9.1965 N.3     1  UNL1       -0.2727
      7 C          61.7271   88.9106    9.3858 C.3     1  UNL1        0.0896
      8 C          62.5708   88.8313   10.6235 C.3     1  UNL1        0.0902
      9 C          59.8101   89.4924    7.8241 C.3     1  UNL1        0.0575
     10 C          59.7924   90.3680    6.6062 C.3     1  UNL1        0.0160
     11 C          58.9667   89.3456    5.8832 C.3     1  UNL1        0.0028
     12 C          58.9843   88.4700    7.1009 C.3     1  UNL1        0.0160
     13 C          63.6627   87.7533   13.4362 C.ar    1  UNL1       -0.0005
     14 C          64.4669   87.5001   14.6768 C.ar    1  UNL1       -0.0028
     15 C          64.7786   86.0935   15.0944 C.ar    1  UNL1       -0.0026
     16 C          64.2861   84.9402   14.2716 C.ar    1  UNL1        0.0021
     17 C          63.4819   85.1933   13.0310 C.ar    1  UNL1       -0.0026
     18 C          63.1701   86.5998   12.6133 C.ar    1  UNL1       -0.0028
     19 C          64.5978   83.5336   14.6893 C.3     1  UNL1        0.1556
     20 N          63.6591   82.4195   14.3319 N.ar    1  UNL1       -0.2255
     21 C          63.9718   81.2555   13.4391 C.ar    1  UNL1        0.1975
     22 N          62.7489   80.3905   13.3599 N.ar    1  UNL1       -0.2007
     23 C          61.6804   81.0200   14.2038 C.ar    1  UNL1        0.2210
     24 N          62.2431   82.2740   14.8045 N.ar    1  UNL1       -0.1448
     25 N          64.7384   91.4418   12.9057 N.ar    1  UNL1       -0.2108
     26 N          65.3562   92.3586   13.9194 N.ar    1  UNL1       -0.0428
     27 N          65.0876   91.7916   15.2819 N.ar    1  UNL1       -0.0229
     28 N          64.3037   90.5243   15.1102 N.ar    1  UNL1       -0.1110
     29 C          64.0879   90.3080   13.6417 C.ar    1  UNL1        0.1798
     30 C          64.7661   91.6262   11.4173 C.3     1  UNL1        0.1570
     31 C          67.6697   94.5209    9.5627 C.ar    1  UNL1       -0.0000
     32 C          67.9918   93.0563    9.6009 C.ar    1  UNL1       -0.0003
     33 C          67.0239   92.0915   10.2191 C.ar    1  UNL1       -0.0023
     34 C          65.7340   92.5911   10.7991 C.ar    1  UNL1        0.0022
     35 C          65.4119   94.0556   10.7609 C.ar    1  UNL1       -0.0023
     36 C          66.3798   95.0205   10.1427 C.ar    1  UNL1       -0.0003
@<TRIPOS>BOND
     1    31    32   ar
     2    32    33   ar
     3    33    34   ar
     4    34    30    1
     5    30    25    1
     6    25    26   ar
     7    26    27   ar
     8    27    28   ar
     9    28    29   ar
    10    29     1    1
    11     1    13    1
    12    13    14   ar
    13    14    15   ar
    14    15    16   ar
    15    16    19    1
    16    19    20    1
    17    20    21   ar
    18    21    22   ar
    19    22    23   ar
    20    23    24   ar
    21    16    17   ar
    22    17    18   ar
    23     1     2    1
    24     2     3    1
    25     3     4    1
    26     4     5    1
    27     5     6    1
    28     6     9    1
    29     9    10    1
    30    10    11    1
    31    11    12    1
    32     6     7    1
    33     7     8    1
    34    34    35   ar
    35    35    36   ar
    36    36    31   ar
    37    29    25   ar
    38    18    13   ar
    39     8     2    1
    40    24    20   ar
    41    12     9    1
@<TRIPOS>MOLECULE
*****
 36 41 0 0 0
SMALL
GASTEIGER

@<TRIPOS>ATOM
      1 C          62.6389   88.9077   12.5723 C.3     1  UNL1        0.1412
      2 N          62.9982   87.4812   12.8655 N.3     1  UNL1       -0.2630
      3 C          64.0315   87.2766   13.9335 C.3     1  UNL1        0.0742
      4 C          64.5984   85.9881   14.4518 C.3     1  UNL1        0.0347
      5 C          64.2721   84.5862   14.0300 C.3     1  UNL1        0.0735
      6 N          63.2983   84.1262   12.9859 N.3     1  UNL1       -0.2727
      7 C          62.4102   84.9548   12.1057 C.3     1  UNL1        0.0896
      8 C          62.2767   86.4479   12.0522 C.3     1  UNL1        0.0902
      9 C          63.1994   82.6415   12.7971 C.3     1  UNL1        0.0575
     10 C          63.1294   81.7253   11.6114 C.3     1  UNL1        0.0160
     11 C          63.0596   80.5417   12.5301 C.3     1  UNL1        0.0028
     12 C          63.1297   81.4577   13.7158 C.3     1  UNL1        0.0160
     13 C          63.6696   89.9869   12.7236 C.ar    1  UNL1       -0.0005
     14 C          63.9012   90.9643   11.6096 C.ar    1  UNL1       -0.0028
     15 C          64.9319   92.0436   11.7610 C.ar    1  UNL1       -0.0026
     16 C          65.7310   92.1455   13.0263 C.ar    1  UNL1        0.0021
     17 C          65.4993   91.1681   14.1403 C.ar    1  UNL1       -0.0026
     18 C          64.4687   90.0889   13.9890 C.ar    1  UNL1       -0.0028
     19 C          66.7617   93.2248   13.1776 C.3     1  UNL1        0.1556
     20 N          67.7161   93.1935   14.3343 N.ar    1  UNL1       -0.2255
     21 C          68.8353   92.2138   14.5275 C.ar    1  UNL1        0.1975
     22 N          69.5299   92.5513   15.8135 N.ar    1  UNL1       -0.2007
     23 C          68.8399   93.7396   16.4150 C.ar    1  UNL1        0.2210
     24 N          67.7189   94.1365   15.5007 N.ar    1  UNL1       -0.1448
     25 N          60.7568   89.2797   10.7111 N.ar    1  UNL1       -0.2108
     26 N          59.3109   89.6784   10.7297 N.ar    1  UNL1       -0.0428
     27 N          58.9095   89.9000   12.1579 N.ar    1  UNL1       -0.0229
     28 N          60.1073   89.6383   13.0220 N.ar    1  UNL1       -0.1110
     29 C          61.2490   89.2549   12.1279 C.ar    1  UNL1        0.1798
     30 C          61.5680   88.9616    9.4902 C.3     1  UNL1        0.1570
     31 C          60.9686   85.0506    7.3466 C.ar    1  UNL1       -0.0000
     32 C          59.8579   86.0578    7.3941 C.ar    1  UNL1       -0.0003
     33 C          60.0578   87.3614    8.1086 C.ar    1  UNL1       -0.0023
     34 C          61.3682   87.6579    8.7756 C.ar    1  UNL1        0.0022
     35 C          62.4788   86.6508    8.7282 C.ar    1  UNL1       -0.0023
     36 C          62.2789   85.3471    8.0137 C.ar    1  UNL1       -0.0003
@<TRIPOS>BOND
     1    31    32   ar
     2    32    33   ar
     3    33    34   ar
     4    34    30    1
     5    30    25    1
     6    25    26   ar
     7    26    27   ar
     8    27    28   ar
     9    28    29   ar
    10    29     1    1
    11     1    13    1
    12    13    14   ar
    13    14    15   ar
    14    15    16   ar
    15    16    19    1
    16    19    20    1
    17    20    21   ar
    18    21    22   ar
    19    22    23   ar
    20    23    24   ar
    21    16    17   ar
    22    17    18   ar
    23     1     2    1
    24     2     3    1
    25     3     4    1
    26     4     5    1
    27     5     6    1
    28     6     9    1
    29     9    10    1
    30    10    11    1
    31    11    12    1
    32     6     7    1
    33     7     8    1
    34    34    35   ar
    35    35    36   ar
    36    36    31   ar
    37    29    25   ar
    38    18    13   ar
    39     8     2    1
    40    24    20   ar
    41    12     9    1
