@<TRIPOS>MOLECULE
*****
 39 43 0 0 0
SMALL
GASTEIGER

@<TRIPOS>ATOM
      1 N          63.6039   86.5017   13.1460 N.ar    1  UNL1       -0.2986
      2 C          62.8947   85.6178   12.1632 C.ar    1  UNL1        0.1245
      3 C          62.2679   86.4944   11.1198 C.ar    1  UNL1        0.1157
      4 C          62.5897   87.9199   11.4577 C.ar    1  UNL1        0.0967
      5 C          63.4154   87.9244   12.7099 C.ar    1  UNL1        0.1354
      6 C          63.8890   89.2235   13.2915 C.ar    1  UNL1        0.2818
      7 O          64.7147   89.2280   14.5437 O.2     1  UNL1       -0.2652
      8 N          63.5369   90.5181   12.6206 N.ar    1  UNL1       -0.2433
      9 C          62.7111   90.5136   11.3683 C.ar    1  UNL1        0.3342
     10 O          62.4331   91.0845   10.8863 O.2     1  UNL1       -0.2462
     11 N          62.2376   89.2146   10.7869 N.ar    1  UNL1       -0.2770
     12 C          61.4119   89.2101    9.5347 C.3     1  UNL1        0.1351
     13 N          62.8246   84.1203   12.2148 N.pl3   1  UNL1       -0.2925
     14 C          62.2632   83.5382   13.4781 C.3     1  UNL1        0.0936
     15 C          62.0636   82.0951   13.8350 C.3     1  UNL1        0.0385
     16 C          62.3764   80.8774   13.0166 C.3     1  UNL1        0.0704
     17 N          62.9658   80.8023   11.6393 N.3     1  UNL1       -0.2960
     18 C          63.3881   81.9263   10.7402 C.3     1  UNL1        0.0903
     19 C          63.3253   83.4030   10.9963 C.3     1  UNL1        0.1092
     20 H          62.2765   80.2843   11.0943 H       1  UNL1        0.1233
     21 C          61.4609   86.0274    9.9448 C.1     1  UNL1        0.1047
     22 N          60.6538   85.5605    8.7697 N.1     1  UNL1       -0.1907
     23 C          64.3676   86.0432   14.3529 C.3     1  UNL1        0.1842
     24 C          62.6551   86.6622   18.4681 C.3     1  UNL1        0.0900
     25 C          63.2259   86.4559   17.0964 C.1     1  UNL1       -0.0881
     26 C          63.7968   86.2496   15.7246 C.1     1  UNL1       -0.0656
     27 C          64.0104   91.8172   13.2021 C.3     1  UNL1        0.1411
     28 C          65.4764   92.0545   13.4128 C.ar    1  UNL1        0.0132
     29 C          66.0256   92.1672   14.8042 C.ar    1  UNL1        0.0854
     30 C          67.4916   92.4045   15.0149 C.ar    1  UNL1        0.1088
     31 N          68.4085   92.5290   13.8342 N.ar    1  UNL1       -0.2432
     32 C          67.8594   92.4163   12.4430 C.ar    1  UNL1        0.0811
     33 C          68.7763   92.5408   11.2623 C.ar    1  UNL1        0.0191
     34 C          68.2272   92.4280    9.8711 C.ar    1  UNL1        0.0015
     35 C          66.7611   92.1908    9.6603 C.ar    1  UNL1        0.0001
     36 C          65.8442   92.0662   10.8409 C.ar    1  UNL1        0.0013
     37 C          66.3934   92.1790   12.2323 C.ar    1  UNL1        0.0162
     38 C          65.1087   92.0427   15.9847 C.1     1  UNL1        0.1017
     39 N          64.1918   91.9182   17.1653 N.1     1  UNL1       -0.1908
@<TRIPOS>BOND
     1    24    25    1
     2    25    26    3
     3    26    23    1
     4    23     1    1
     5     1     2   ar
     6     2    13    1
     7    13    14    1
     8    14    15    1
     9    15    16    1
    10    16    17    1
    11    17    18    1
    12    18    19    1
    13     2     3   ar
    14     3    21    1
    15    21    22    3
    16     3     4   ar
    17     4     5   ar
    18     5     6   ar
    19     6     7    2
    20     6     8   ar
    21     8    27    1
    22    27    28    1
    23    28    29   ar
    24    29    38    1
    25    38    39    3
    26    29    30   ar
    27    30    31   ar
    28    31    32   ar
    29    32    33   ar
    30    33    34   ar
    31    34    35   ar
    32    35    36   ar
    33    36    37   ar
    34     8     9   ar
    35     9    10    2
    36     9    11   ar
    37    11    12    1
    38     5     1   ar
    39    37    28   ar
    40    19    13    1
    41    11     4   ar
    42    37    32   ar
    43    17    20    1
@<TRIPOS>MOLECULE
*****
 39 43 0 0 0
SMALL
GASTEIGER

@<TRIPOS>ATOM
      1 N          63.5074   86.2267   13.0427 N.ar    1  UNL1       -0.2986
      2 C          62.8293   85.3503   12.0316 C.ar    1  UNL1        0.1245
      3 C          62.1464   86.2373   11.0332 C.ar    1  UNL1        0.1157
      4 C          62.4024   87.6618   11.4271 C.ar    1  UNL1        0.0967
      5 C          63.2436   87.6552   12.6691 C.ar    1  UNL1        0.1354
      6 C          63.6606   88.9509   13.2994 C.ar    1  UNL1        0.2818
      7 O          64.5018   88.9443   14.5413 O.2     1  UNL1       -0.2652
      8 N          63.2365   90.2532   12.6877 N.ar    1  UNL1       -0.2433
      9 C          62.3954   90.2598   11.4457 C.ar    1  UNL1        0.3342
     10 O          62.0833   90.8357   10.9913 O.2     1  UNL1       -0.2462
     11 N          61.9783   88.9641   10.8154 N.ar    1  UNL1       -0.2770
     12 C          61.1372   88.9707    9.5735 C.3     1  UNL1        0.1351
     13 N          62.8334   83.8503   12.0209 N.pl3   1  UNL1       -0.2925
     14 C          63.4007   83.2098   10.7889 C.3     1  UNL1        0.0936
     15 C          63.5444   81.7501   10.4752 C.3     1  UNL1        0.0385
     16 C          63.1562   80.5702   11.3163 C.3     1  UNL1        0.0704
     17 N          62.5285   80.5587   12.6785 N.3     1  UNL1       -0.2960
     18 C          62.1340   81.7243   13.5363 C.3     1  UNL1        0.0903
     19 C          62.2696   83.1892   13.2437 C.3     1  UNL1        0.1092
     20 H          63.1795   80.0258   13.2553 H       1  UNL1        0.1233
     21 C          61.3477   85.7801    9.8487 C.1     1  UNL1        0.1047
     22 N          60.5488   85.3229    8.6642 N.1     1  UNL1       -0.1907
     23 C          64.3086   85.7569   14.2205 C.3     1  UNL1        0.1842
     24 C          62.8093   86.4923   18.3993 C.3     1  UNL1        0.0900
     25 C          63.3091   86.2471   17.0064 C.1     1  UNL1       -0.0881
     26 C          63.8089   86.0020   15.6134 C.1     1  UNL1       -0.0656
     27 C          63.6536   91.5489   13.3179 C.3     1  UNL1        0.1411
     28 C          65.0230   92.1029   13.0578 C.ar    1  UNL1        0.0132
     29 C          65.4462   92.4293   11.6561 C.ar    1  UNL1        0.0854
     30 C          66.8157   92.9834   11.3960 C.ar    1  UNL1        0.1088
     31 N          67.7619   93.2110   12.5375 N.ar    1  UNL1       -0.2432
     32 C          67.3387   92.8846   13.9390 C.ar    1  UNL1        0.0811
     33 C          68.2849   93.1122   15.0805 C.ar    1  UNL1        0.0191
     34 C          67.8617   92.7858   16.4820 C.ar    1  UNL1        0.0015
     35 C          66.4923   92.2317   16.7421 C.ar    1  UNL1        0.0001
     36 C          65.5460   92.0041   15.6008 C.ar    1  UNL1        0.0013
     37 C          65.9692   92.3305   14.1991 C.ar    1  UNL1        0.0162
     38 C          64.5000   92.2017   10.5148 C.1     1  UNL1        0.1017
     39 N          63.5538   91.9741    9.3734 N.1     1  UNL1       -0.1908
@<TRIPOS>BOND
     1    24    25    1
     2    25    26    3
     3    26    23    1
     4    23     1    1
     5     1     2   ar
     6     2    13    1
     7    13    14    1
     8    14    15    1
     9    15    16    1
    10    16    17    1
    11    17    18    1
    12    18    19    1
    13     2     3   ar
    14     3    21    1
    15    21    22    3
    16     3     4   ar
    17     4     5   ar
    18     5     6   ar
    19     6     7    2
    20     6     8   ar
    21     8    27    1
    22    27    28    1
    23    28    29   ar
    24    29    38    1
    25    38    39    3
    26    29    30   ar
    27    30    31   ar
    28    31    32   ar
    29    32    33   ar
    30    33    34   ar
    31    34    35   ar
    32    35    36   ar
    33    36    37   ar
    34     8     9   ar
    35     9    10    2
    36     9    11   ar
    37    11    12    1
    38     5     1   ar
    39    37    28   ar
    40    19    13    1
    41    11     4   ar
    42    37    32   ar
    43    17    20    1
