@<TRIPOS>MOLECULE
*****
 41 45 0 0 0
SMALL
GASTEIGER

@<TRIPOS>ATOM
      1 C          60.1824   89.7211    6.9623 C.ar    1  UNL1        0.0479
      2 C          58.7073   89.8045    6.7029 C.ar    1  UNL1        0.0145
      3 C          58.1932   90.6141    5.5496 C.ar    1  UNL1        0.0013
      4 C          59.1541   91.3404    4.6557 C.ar    1  UNL1        0.0001
      5 C          60.6292   91.2571    4.9151 C.ar    1  UNL1        0.0013
      6 C          61.1433   90.4474    6.0684 C.ar    1  UNL1        0.0145
      7 N          61.7246   87.2921   10.4223 N.3     1  UNL1       -0.1520
      8 C          61.9476   88.7751   10.3885 C.3     1  UNL1        0.1172
      9 C          61.4336   89.5847    9.2352 C.3     1  UNL1        0.1099
     10 N          60.6964   88.9115    8.1156 N.pl3   1  UNL1       -0.3045
     11 C          60.4734   87.4286    8.1494 C.3     1  UNL1        0.1099
     12 C          60.9875   86.6188    9.3027 C.3     1  UNL1        0.1172
     13 O          61.6736   85.2394   10.9548 O.2     1  UNL1       -0.1528
     14 S          62.2387   86.4824   11.5756 S.O2    1  UNL1        0.0635
     15 O          62.8038   87.7255   12.1963 O.2     1  UNL1       -0.1528
     16 C          62.7528   85.6728   12.7290 C.ar    1  UNL1        0.1252
     17 C          63.8229   86.2313   13.6194 C.ar    1  UNL1        0.0201
     18 C          64.3370   85.4216   14.7727 C.ar    1  UNL1        0.0045
     19 C          63.7809   84.0535   15.0356 C.ar    1  UNL1        0.0373
     20 C          62.7108   83.4951   14.1452 C.ar    1  UNL1        0.1481
     21 C          62.1967   84.3047   12.9919 C.ar    1  UNL1        0.0571
     22 O          62.1547   82.1270   14.4081 O.3     1  UNL1       -0.4044
     23 C          62.2845   81.0524   13.3697 C.3     1  UNL1        0.5753
     24 F          62.4144   79.9777   12.3312 F       1  UNL1       -0.1328
     25 F          60.8269   80.7316   13.5195 F       1  UNL1       -0.1328
     26 F          63.7421   81.3732   13.2198 F       1  UNL1       -0.1328
     27 C          58.6401   92.1501    3.5023 C.2     1  UNL1        0.0000
     28 C          59.5618   92.5269    2.3806 C.2     1  UNL1        0.0000
     29 C          59.0477   93.3365    1.2272 C.ar    1  UNL1        0.0006
     30 C          59.6273   94.6907    0.9440 C.ar    1  UNL1        0.0114
     31 C          59.1132   95.5003   -0.2094 C.ar    1  UNL1        0.0574
     32 CL         59.6929   96.8545   -0.4926 Cl      1  UNL1       -0.0823
     33 C          58.0194   94.9558   -1.0794 C.ar    1  UNL1        0.0090
     34 C          57.4397   93.6016   -0.7961 C.ar    1  UNL1        0.0013
     35 C          57.9538   92.7920    0.3571 C.ar    1  UNL1       -0.0023
     36 C          56.3458   93.0571   -1.6662 C.3     1  UNL1        0.1344
     37 N          56.6479   92.6313   -3.0725 N.ar    1  UNL1       -0.3036
     38 C          57.2187   93.5005   -4.1535 C.ar    1  UNL1        0.0983
     39 C          57.3558   92.6679   -5.3937 C.ar    1  UNL1        0.1193
     40 N          56.8697   91.2842   -5.0791 N.ar    1  UNL1       -0.2223
     41 C          56.4322   91.2615   -3.6445 C.ar    1  UNL1        0.1789
@<TRIPOS>BOND
     1    13    14    2
     2    14    15    2
     3    14    16    1
     4    16    17   ar
     5    17    18   ar
     6    18    19   ar
     7    19    20   ar
     8    20    22    1
     9    22    23    1
    10    23    24    1
    11    23    25    1
    12    23    26    1
    13    20    21   ar
    14    14     7    1
    15     7     8    1
    16     8     9    1
    17     9    10    1
    18    10     1    1
    19     1     2   ar
    20     2     3   ar
    21     3     4   ar
    22     4    27    1
    23    27    28    2
    24    28    29    1
    25    29    30   ar
    26    30    31   ar
    27    31    32    1
    28    31    33   ar
    29    33    34   ar
    30    34    36    1
    31    36    37    1
    32    37    38   ar
    33    38    39   ar
    34    39    40   ar
    35    40    41   ar
    36    34    35   ar
    37     4     5   ar
    38     5     6   ar
    39    10    11    1
    40    11    12    1
    41    21    16   ar
    42    12     7    1
    43     6     1   ar
    44    35    29   ar
    45    41    37   ar
@<TRIPOS>MOLECULE
*****
 41 45 0 0 0
SMALL
GASTEIGER

@<TRIPOS>ATOM
      1 C          60.3529   89.2519    7.1447 C.ar    1  UNL1        0.0479
      2 C          60.9218   89.7315    8.4472 C.ar    1  UNL1        0.0145
      3 C          61.1091   88.7701    9.5832 C.ar    1  UNL1        0.0013
      4 C          60.7274   87.3290    9.4168 C.ar    1  UNL1        0.0001
      5 C          60.1586   86.8494    8.1144 C.ar    1  UNL1        0.0013
      6 C          59.9713   87.8109    6.9783 C.ar    1  UNL1        0.0145
      7 N          59.7912   92.1364    3.7367 N.3     1  UNL1       -0.1520
      8 C          61.1560   91.5951    4.0440 C.3     1  UNL1        0.1172
      9 C          61.3432   90.6336    5.1800 C.3     1  UNL1        0.1099
     10 N          60.1657   90.2134    6.0088 N.pl3   1  UNL1       -0.3045
     11 C          58.8009   90.7546    5.7015 C.3     1  UNL1        0.1099
     12 C          58.6136   91.7162    4.5655 C.3     1  UNL1        0.1172
     13 O          59.3899   91.9474    1.6624 O.2     1  UNL1       -0.1528
     14 S          59.6039   93.0978    2.6008 S.O2    1  UNL1        0.0635
     15 O          59.8180   94.2482    3.5392 O.2     1  UNL1       -0.1528
     16 C          59.4167   94.0594    1.4647 C.ar    1  UNL1        0.1252
     17 C          59.9787   95.4470    1.5563 C.ar    1  UNL1        0.0201
     18 C          59.7915   96.4085    0.4204 C.ar    1  UNL1        0.0045
     19 C          59.0422   95.9823   -0.8072 C.ar    1  UNL1        0.0373
     20 C          58.4801   94.5946   -0.8988 C.ar    1  UNL1        0.1481
     21 C          58.6674   93.6332    0.2372 C.ar    1  UNL1        0.0571
     22 O          57.7308   94.1684   -2.1263 O.3     1  UNL1       -0.4044
     23 C          56.7767   93.0130   -2.0592 C.3     1  UNL1        0.5753
     24 F          55.8225   91.8575   -1.9921 F       1  UNL1       -0.1328
     25 F          55.7727   93.8826   -1.3623 F       1  UNL1       -0.1328
     26 F          57.7806   92.1434   -2.7561 F       1  UNL1       -0.1328
     27 C          60.9147   86.3676   10.5528 C.2     1  UNL1        0.0000
     28 C          62.2246   85.6577   10.7264 C.2     1  UNL1        0.0000
     29 C          62.4118   84.6962   11.8625 C.ar    1  UNL1        0.0006
     30 C          62.3355   83.2188   11.6149 C.ar    1  UNL1        0.0114
     31 C          62.5227   82.2573   12.7510 C.ar    1  UNL1        0.0574
     32 CL         62.4464   80.7799   12.5034 Cl      1  UNL1       -0.0823
     33 C          62.7862   82.7733   14.1346 C.ar    1  UNL1        0.0090
     34 C          62.8625   84.2508   14.3821 C.ar    1  UNL1        0.0013
     35 C          62.6753   85.2123   13.2461 C.ar    1  UNL1       -0.0023
     36 C          63.1260   84.7669   15.7657 C.3     1  UNL1        0.1344
     37 N          63.2577   86.2421   16.0035 N.ar    1  UNL1       -0.3036
     38 C          62.7129   86.9976   17.1792 C.ar    1  UNL1        0.0983
     39 C          63.0758   88.4432   17.0098 C.ar    1  UNL1        0.1193
     40 N          63.8449   88.5810   15.7293 N.ar    1  UNL1       -0.2223
     41 C          63.9573   87.2206   15.1074 C.ar    1  UNL1        0.1789
@<TRIPOS>BOND
     1    13    14    2
     2    14    15    2
     3    14    16    1
     4    16    17   ar
     5    17    18   ar
     6    18    19   ar
     7    19    20   ar
     8    20    22    1
     9    22    23    1
    10    23    24    1
    11    23    25    1
    12    23    26    1
    13    20    21   ar
    14    14     7    1
    15     7     8    1
    16     8     9    1
    17     9    10    1
    18    10     1    1
    19     1     2   ar
    20     2     3   ar
    21     3     4   ar
    22     4    27    1
    23    27    28    2
    24    28    29    1
    25    29    30   ar
    26    30    31   ar
    27    31    32    1
    28    31    33   ar
    29    33    34   ar
    30    34    36    1
    31    36    37    1
    32    37    38   ar
    33    38    39   ar
    34    39    40   ar
    35    40    41   ar
    36    34    35   ar
    37     4     5   ar
    38     5     6   ar
    39    10    11    1
    40    11    12    1
    41    21    16   ar
    42    12     7    1
    43     6     1   ar
    44    35    29   ar
    45    41    37   ar
@<TRIPOS>MOLECULE
*****
 41 45 0 0 0
SMALL
GASTEIGER

@<TRIPOS>ATOM
      1 C          60.0876   89.5354    6.7493 C.ar    1  UNL1        0.0479
      2 C          61.1181   90.2393    5.9170 C.ar    1  UNL1        0.0145
      3 C          60.6896   91.1862    4.8355 C.ar    1  UNL1        0.0013
      4 C          59.2306   91.4292    4.5863 C.ar    1  UNL1        0.0001
      5 C          58.2001   90.7254    5.4185 C.ar    1  UNL1        0.0013
      6 C          58.6286   89.7784    6.5001 C.ar    1  UNL1        0.0145
      7 N          61.3733   86.6946    9.9939 N.3     1  UNL1       -0.1520
      8 C          61.5486   88.1729   10.1785 C.3     1  UNL1        0.1172
      9 C          61.1200   89.1198    9.0970 C.3     1  UNL1        0.1099
     10 N          60.5162   88.5885    7.8308 N.pl3   1  UNL1       -0.3045
     11 C          60.3409   87.1103    7.6462 C.3     1  UNL1        0.1099
     12 C          60.7695   86.1633    8.7277 C.3     1  UNL1        0.1172
     13 O          61.0132   86.5363   12.0783 O.2     1  UNL1       -0.1528
     14 S          61.8019   85.7477   11.0754 S.O2    1  UNL1        0.0635
     15 O          62.5905   84.9591   10.0724 O.2     1  UNL1       -0.1528
     16 C          62.2305   84.8007   12.1569 C.ar    1  UNL1        0.1252
     17 C          62.7174   83.4272   11.8015 C.ar    1  UNL1        0.0201
     18 C          63.1460   82.4803   12.8830 C.ar    1  UNL1        0.0045
     19 C          63.0876   82.9069   14.3199 C.ar    1  UNL1        0.0373
     20 C          62.6007   84.2804   14.6752 C.ar    1  UNL1        0.1481
     21 C          62.1721   85.2273   13.5937 C.ar    1  UNL1        0.0571
     22 O          62.5424   84.7071   16.1121 O.3     1  UNL1       -0.4044
     23 C          63.0083   86.0770   16.5072 C.3     1  UNL1        0.5753
     24 F          63.4743   87.4470   16.9024 F       1  UNL1       -0.1328
     25 F          64.3369   85.8106   15.8640 F       1  UNL1       -0.1328
     26 F          61.6797   86.3433   17.1505 F       1  UNL1       -0.1328
     27 C          58.8020   92.3761    3.5048 C.2     1  UNL1        0.0000
     28 C          59.5737   92.4466    2.2205 C.2     1  UNL1        0.0000
     29 C          59.1451   93.3936    1.1389 C.ar    1  UNL1        0.0006
     30 C          59.9291   94.6469    0.8854 C.ar    1  UNL1        0.0114
     31 C          59.5005   95.5939   -0.1961 C.ar    1  UNL1        0.0574
     32 CL         60.2845   96.8472   -0.4497 Cl      1  UNL1       -0.0823
     33 C          58.2878   95.2874   -1.0241 C.ar    1  UNL1        0.0090
     34 C          57.5038   94.0340   -0.7705 C.ar    1  UNL1        0.0013
     35 C          57.9324   93.0871    0.3110 C.ar    1  UNL1       -0.0023
     36 C          56.2911   93.7275   -1.5984 C.3     1  UNL1        0.1344
     37 N          56.4485   93.2692   -3.0180 N.ar    1  UNL1       -0.3036
     38 C          56.9379   91.9220   -3.4604 C.ar    1  UNL1        0.0983
     39 C          56.9360   91.8978   -4.9603 C.ar    1  UNL1        0.1193
     40 N          56.4453   93.2300   -5.4448 N.ar    1  UNL1       -0.2223
     41 C          56.1440   94.0775   -4.2444 C.ar    1  UNL1        0.1789
@<TRIPOS>BOND
     1    13    14    2
     2    14    15    2
     3    14    16    1
     4    16    17   ar
     5    17    18   ar
     6    18    19   ar
     7    19    20   ar
     8    20    22    1
     9    22    23    1
    10    23    24    1
    11    23    25    1
    12    23    26    1
    13    20    21   ar
    14    14     7    1
    15     7     8    1
    16     8     9    1
    17     9    10    1
    18    10     1    1
    19     1     2   ar
    20     2     3   ar
    21     3     4   ar
    22     4    27    1
    23    27    28    2
    24    28    29    1
    25    29    30   ar
    26    30    31   ar
    27    31    32    1
    28    31    33   ar
    29    33    34   ar
    30    34    36    1
    31    36    37    1
    32    37    38   ar
    33    38    39   ar
    34    39    40   ar
    35    40    41   ar
    36    34    35   ar
    37     4     5   ar
    38     5     6   ar
    39    10    11    1
    40    11    12    1
    41    21    16   ar
    42    12     7    1
    43     6     1   ar
    44    35    29   ar
    45    41    37   ar
@<TRIPOS>MOLECULE
*****
 41 45 0 0 0
SMALL
GASTEIGER

@<TRIPOS>ATOM
      1 C          60.3256   92.1949    2.9037 C.ar    1  UNL1        0.0479
      2 C          61.4678   91.4892    3.5727 C.ar    1  UNL1        0.0145
      3 C          61.2634   90.8234    4.9011 C.ar    1  UNL1        0.0013
      4 C          59.9168   90.8632    5.5607 C.ar    1  UNL1        0.0001
      5 C          58.7746   91.5688    4.8919 C.ar    1  UNL1        0.0013
      6 C          58.9790   92.2347    3.5633 C.ar    1  UNL1        0.0145
      7 N          60.9389   94.1926   -1.0816 N.3     1  UNL1       -0.1520
      8 C          59.5875   94.2162   -0.4309 C.3     1  UNL1        0.1172
      9 C          59.3831   93.5503    0.8976 C.3     1  UNL1        0.1099
     10 N          60.5300   92.8608    1.5753 N.pl3   1  UNL1       -0.3045
     11 C          61.8812   92.8372    0.9246 C.3     1  UNL1        0.1099
     12 C          62.0857   93.5031   -0.4039 C.3     1  UNL1        0.1172
     13 O          61.8120   96.0147   -1.7276 O.2     1  UNL1       -0.1528
     14 S          61.1433   94.8584   -2.4101 S.O2    1  UNL1        0.0635
     15 O          60.4745   93.7021   -3.0925 O.2     1  UNL1       -0.1528
     16 C          61.3477   95.5243   -3.7386 C.ar    1  UNL1        0.1252
     17 C          60.1639   95.9813   -4.5385 C.ar    1  UNL1        0.0201
     18 C          60.3684   96.6472   -5.8669 C.ar    1  UNL1        0.0045
     19 C          61.7565   96.8559   -6.3955 C.ar    1  UNL1        0.0373
     20 C          62.9403   96.3989   -5.5957 C.ar    1  UNL1        0.1481
     21 C          62.7358   95.7330   -4.2672 C.ar    1  UNL1        0.0571
     22 O          64.3284   96.6076   -6.1243 O.3     1  UNL1       -0.4044
     23 C          65.2386   95.4326   -6.3264 C.3     1  UNL1        0.5753
     24 F          66.1488   94.2576   -6.5285 F       1  UNL1       -0.1328
     25 F          64.1066   94.6608   -6.9370 F       1  UNL1       -0.1328
     26 F          66.3706   96.2044   -5.7158 F       1  UNL1       -0.1328
     27 C          59.7124   90.1973    6.8891 C.2     1  UNL1        0.0000
     28 C          60.8902   89.6652    7.6505 C.2     1  UNL1        0.0000
     29 C          60.6857   88.9993    8.9790 C.ar    1  UNL1        0.0006
     30 C          59.8699   89.6768   10.0399 C.ar    1  UNL1        0.0114
     31 C          59.6654   89.0109   11.3684 C.ar    1  UNL1        0.0574
     32 CL         58.8496   89.6883   12.4292 Cl      1  UNL1       -0.0823
     33 C          60.2768   87.6675   11.6360 C.ar    1  UNL1        0.0090
     34 C          61.0927   86.9901   10.5750 C.ar    1  UNL1        0.0013
     35 C          61.2971   87.6560    9.2466 C.ar    1  UNL1       -0.0023
     36 C          61.7041   85.6467   10.8426 C.3     1  UNL1        0.1344
     37 N          62.4420   85.4006   12.1252 N.ar    1  UNL1       -0.3036
     38 C          62.4493   84.1200   12.9063 C.ar    1  UNL1        0.0983
     39 C          63.3140   84.3198   14.1157 C.ar    1  UNL1        0.1193
     40 N          63.8411   85.7238   14.0819 N.ar    1  UNL1       -0.2223
     41 C          63.3021   86.3917   12.8517 C.ar    1  UNL1        0.1789
@<TRIPOS>BOND
     1    13    14    2
     2    14    15    2
     3    14    16    1
     4    16    17   ar
     5    17    18   ar
     6    18    19   ar
     7    19    20   ar
     8    20    22    1
     9    22    23    1
    10    23    24    1
    11    23    25    1
    12    23    26    1
    13    20    21   ar
    14    14     7    1
    15     7     8    1
    16     8     9    1
    17     9    10    1
    18    10     1    1
    19     1     2   ar
    20     2     3   ar
    21     3     4   ar
    22     4    27    1
    23    27    28    2
    24    28    29    1
    25    29    30   ar
    26    30    31   ar
    27    31    32    1
    28    31    33   ar
    29    33    34   ar
    30    34    36    1
    31    36    37    1
    32    37    38   ar
    33    38    39   ar
    34    39    40   ar
    35    40    41   ar
    36    34    35   ar
    37     4     5   ar
    38     5     6   ar
    39    10    11    1
    40    11    12    1
    41    21    16   ar
    42    12     7    1
    43     6     1   ar
    44    35    29   ar
    45    41    37   ar
@<TRIPOS>MOLECULE
*****
 41 45 0 0 0
SMALL
GASTEIGER

@<TRIPOS>ATOM
      1 C          59.9348   92.2135    2.8558 C.ar    1  UNL1        0.0479
      2 C          61.1612   91.5710    3.4331 C.ar    1  UNL1        0.0145
      3 C          61.1086   90.9421    4.7938 C.ar    1  UNL1        0.0013
      4 C          59.8295   90.9557    5.5773 C.ar    1  UNL1        0.0001
      5 C          58.6032   91.5981    5.0001 C.ar    1  UNL1        0.0013
      6 C          58.6558   92.2271    3.6393 C.ar    1  UNL1        0.0145
      7 N          60.0929   94.1001   -1.2266 N.3     1  UNL1       -0.1520
      8 C          58.7731   93.9065   -0.5404 C.3     1  UNL1        0.1172
      9 C          58.7204   93.2776    0.8204 C.3     1  UNL1        0.1099
     10 N          59.9875   92.8424    1.4950 N.pl3   1  UNL1       -0.3045
     11 C          61.3072   93.0359    0.8089 C.3     1  UNL1        0.1099
     12 C          61.3599   93.6648   -0.5520 C.3     1  UNL1        0.1172
     13 O          61.3238   93.8699   -2.9388 O.2     1  UNL1       -0.1528
     14 S          60.1455   94.7290   -2.5873 S.O2    1  UNL1        0.0635
     15 O          58.9673   95.5881   -2.2359 O.2     1  UNL1       -0.1528
     16 C          60.1982   95.3579   -3.9482 C.ar    1  UNL1        0.1252
     17 C          61.3623   96.2233   -4.3299 C.ar    1  UNL1        0.0201
     18 C          61.4149   96.8522   -5.6907 C.ar    1  UNL1        0.0045
     19 C          60.3033   96.6157   -6.6697 C.ar    1  UNL1        0.0373
     20 C          59.1391   95.7503   -6.2879 C.ar    1  UNL1        0.1481
     21 C          59.0866   95.1214   -4.9272 C.ar    1  UNL1        0.0571
     22 O          58.0275   95.5138   -7.2669 O.3     1  UNL1       -0.4044
     23 C          56.9154   94.5673   -6.9246 C.3     1  UNL1        0.5753
     24 F          55.8032   93.6207   -6.5824 F       1  UNL1       -0.1328
     25 F          56.1034   95.7125   -6.3964 F       1  UNL1       -0.1328
     26 F          57.7275   93.4221   -7.4529 F       1  UNL1       -0.1328
     27 C          59.7769   90.3268    6.9381 C.2     1  UNL1        0.0000
     28 C          60.6017   89.1095    7.2342 C.2     1  UNL1        0.0000
     29 C          60.5490   88.4806    8.5950 C.ar    1  UNL1        0.0006
     30 C          59.9616   89.2378    9.7489 C.ar    1  UNL1        0.0114
     31 C          59.9089   88.6090   11.1097 C.ar    1  UNL1        0.0574
     32 CL         59.3214   89.3662   12.2636 Cl      1  UNL1       -0.0823
     33 C          60.4436   87.2229   11.3166 C.ar    1  UNL1        0.0090
     34 C          61.0311   86.4657   10.1626 C.ar    1  UNL1        0.0013
     35 C          61.0838   87.0946    8.8019 C.ar    1  UNL1       -0.0023
     36 C          61.5659   85.0796   10.3695 C.3     1  UNL1        0.1344
     37 N          62.5311   84.8069   11.4849 N.ar    1  UNL1       -0.3036
     38 C          63.5900   83.7444   11.4944 C.ar    1  UNL1        0.0983
     39 C          64.3203   83.8296   12.8020 C.ar    1  UNL1        0.1193
     40 N          63.7126   84.9446   13.6005 N.ar    1  UNL1       -0.2223
     41 C          62.6069   85.5486   12.7865 C.ar    1  UNL1        0.1789
@<TRIPOS>BOND
     1    13    14    2
     2    14    15    2
     3    14    16    1
     4    16    17   ar
     5    17    18   ar
     6    18    19   ar
     7    19    20   ar
     8    20    22    1
     9    22    23    1
    10    23    24    1
    11    23    25    1
    12    23    26    1
    13    20    21   ar
    14    14     7    1
    15     7     8    1
    16     8     9    1
    17     9    10    1
    18    10     1    1
    19     1     2   ar
    20     2     3   ar
    21     3     4   ar
    22     4    27    1
    23    27    28    2
    24    28    29    1
    25    29    30   ar
    26    30    31   ar
    27    31    32    1
    28    31    33   ar
    29    33    34   ar
    30    34    36    1
    31    36    37    1
    32    37    38   ar
    33    38    39   ar
    34    39    40   ar
    35    40    41   ar
    36    34    35   ar
    37     4     5   ar
    38     5     6   ar
    39    10    11    1
    40    11    12    1
    41    21    16   ar
    42    12     7    1
    43     6     1   ar
    44    35    29   ar
    45    41    37   ar
@<TRIPOS>MOLECULE
*****
 41 45 0 0 0
SMALL
GASTEIGER

@<TRIPOS>ATOM
      1 C          60.4270   89.2582    7.3482 C.ar    1  UNL1        0.0479
      2 C          60.1654   87.7874    7.2128 C.ar    1  UNL1        0.0145
      3 C          60.3677   86.8782    8.3886 C.ar    1  UNL1        0.0013
      4 C          60.8315   87.4399    9.6999 C.ar    1  UNL1        0.0001
      5 C          61.0930   88.9106    9.8354 C.ar    1  UNL1        0.0013
      6 C          60.8908   89.8198    8.6595 C.ar    1  UNL1        0.0145
      7 N          59.8203   91.9856    3.8207 N.3     1  UNL1       -0.1520
      8 C          58.6536   91.6031    4.6825 C.3     1  UNL1        0.1172
      9 C          58.8558   90.6939    5.8583 C.3     1  UNL1        0.1099
     10 N          60.2248   90.1673    6.1724 N.pl3   1  UNL1       -0.3045
     11 C          61.3915   90.5498    5.3108 C.3     1  UNL1        0.1099
     12 C          61.1893   91.4590    4.1349 C.3     1  UNL1        0.1172
     13 O          61.0553   93.3167    2.7241 O.2     1  UNL1       -0.1528
     14 S          59.6181   92.8947    2.6449 S.O2    1  UNL1        0.0635
     15 O          58.1809   92.4727    2.5658 O.2     1  UNL1       -0.1528
     16 C          59.4158   93.8039    1.4691 C.ar    1  UNL1        0.1252
     17 C          59.9831   95.1923    1.4882 C.ar    1  UNL1        0.0201
     18 C          59.7808   96.1013    0.3124 C.ar    1  UNL1        0.0045
     19 C          59.0112   95.6220   -0.8826 C.ar    1  UNL1        0.0373
     20 C          58.4439   94.2335   -0.9017 C.ar    1  UNL1        0.1481
     21 C          58.6462   93.3245    0.2741 C.ar    1  UNL1        0.0571
     22 O          57.6744   93.7542   -2.0967 O.3     1  UNL1       -0.4044
     23 C          56.2464   93.3210   -1.9448 C.3     1  UNL1        0.5753
     24 F          54.8183   92.8878   -1.7928 F       1  UNL1       -0.1328
     25 F          55.9598   94.5502   -1.1344 F       1  UNL1       -0.1328
     26 F          56.5330   92.0918   -2.7552 F       1  UNL1       -0.1328
     27 C          61.0337   86.5308   10.8757 C.2     1  UNL1        0.0000
     28 C          62.4158   86.0820   11.2478 C.2     1  UNL1        0.0000
     29 C          62.6180   85.1729   12.4237 C.ar    1  UNL1        0.0006
     30 C          63.1115   85.7297   13.7261 C.ar    1  UNL1        0.0114
     31 C          63.3137   84.8205   14.9020 C.ar    1  UNL1        0.0574
     32 CL         63.8072   85.3774   16.2044 Cl      1  UNL1       -0.0823
     33 C          63.0224   83.3546   14.7754 C.ar    1  UNL1        0.0090
     34 C          62.5288   82.7977   13.4728 C.ar    1  UNL1        0.0013
     35 C          62.3267   83.7069   12.2971 C.ar    1  UNL1       -0.0023
     36 C          62.2375   81.3318   13.3462 C.3     1  UNL1        0.1344
     37 N          62.5707   80.6080   12.0753 N.ar    1  UNL1       -0.3036
     38 C          62.5548   79.1211   11.8774 C.ar    1  UNL1        0.0983
     39 C          62.9525   78.8381   10.4589 C.ar    1  UNL1        0.1193
     40 N          63.2140   80.1501    9.7803 N.ar    1  UNL1       -0.2223
     41 C          62.9781   81.2438   10.7793 C.ar    1  UNL1        0.1789
@<TRIPOS>BOND
     1    13    14    2
     2    14    15    2
     3    14    16    1
     4    16    17   ar
     5    17    18   ar
     6    18    19   ar
     7    19    20   ar
     8    20    22    1
     9    22    23    1
    10    23    24    1
    11    23    25    1
    12    23    26    1
    13    20    21   ar
    14    14     7    1
    15     7     8    1
    16     8     9    1
    17     9    10    1
    18    10     1    1
    19     1     2   ar
    20     2     3   ar
    21     3     4   ar
    22     4    27    1
    23    27    28    2
    24    28    29    1
    25    29    30   ar
    26    30    31   ar
    27    31    32    1
    28    31    33   ar
    29    33    34   ar
    30    34    36    1
    31    36    37    1
    32    37    38   ar
    33    38    39   ar
    34    39    40   ar
    35    40    41   ar
    36    34    35   ar
    37     4     5   ar
    38     5     6   ar
    39    10    11    1
    40    11    12    1
    41    21    16   ar
    42    12     7    1
    43     6     1   ar
    44    35    29   ar
    45    41    37   ar
