@<TRIPOS>MOLECULE
*****
 26 29 0 0 0
SMALL
GASTEIGER

@<TRIPOS>ATOM
      1 C          62.8865   89.9894   10.8650 C.ar    1  UNL1        0.0001
      2 C          63.3783   91.0644    9.9417 C.ar    1  UNL1        0.0000
      3 C          64.3566   92.0881   10.4364 C.ar    1  UNL1        0.0001
      4 C          64.8431   92.0369   11.8544 C.ar    1  UNL1        0.0029
      5 C          65.8215   93.0607   12.3491 C.ar    1  UNL1        0.0337
      6 C          66.3080   93.0095   13.7671 C.ar    1  UNL1        0.1336
      7 O          67.2863   94.0333   14.2618 O.3     1  UNL1       -0.5055
      8 C          65.8161   91.9345   14.6904 C.ar    1  UNL1        0.0366
      9 C          64.8378   90.9107   14.1957 C.ar    1  UNL1        0.0031
     10 C          64.3513   90.9619   12.7777 C.ar    1  UNL1        0.0002
     11 C          63.3730   89.9382   12.2830 C.ar    1  UNL1        0.0000
     12 H          67.5935   94.7048   13.6851 H       1  UNL1        0.2922
     13 O          59.0588   88.6172    7.6299 O.3     1  UNL1       -0.5055
     14 C          59.9943   88.2795    8.7527 C.ar    1  UNL1        0.1337
     15 C          59.9514   86.9180    9.3809 C.ar    1  UNL1        0.0366
     16 C          60.8869   86.5803   10.5037 C.ar    1  UNL1        0.0031
     17 C          61.8653   87.6042   10.9984 C.ar    1  UNL1        0.0002
     18 C          61.9081   88.9656   10.3703 C.ar    1  UNL1        0.0030
     19 C          60.9726   89.3033    9.2474 C.ar    1  UNL1        0.0366
     20 H          58.4476   87.9777    7.3208 H       1  UNL1        0.2922
     21 C          66.3133   94.1357   11.4258 C.ar    1  UNL1        0.0029
     22 C          65.9556   95.5691   11.6856 C.ar    1  UNL1        0.0001
     23 C          66.4475   96.6441   10.7623 C.ar    1  UNL1        0.0000
     24 C          67.2970   96.2857    9.5792 C.ar    1  UNL1        0.0000
     25 C          67.6548   94.8523    9.3194 C.ar    1  UNL1        0.0000
     26 C          67.1629   93.7773   10.2426 C.ar    1  UNL1        0.0001
@<TRIPOS>BOND
     1    13    14    1
     2    14    15   ar
     3    15    16   ar
     4    16    17   ar
     5    17    18   ar
     6    18     1    1
     7     1     2   ar
     8     2     3   ar
     9     3     4   ar
    10     4     5   ar
    11     5    21    1
    12    21    22   ar
    13    22    23   ar
    14    23    24   ar
    15    24    25   ar
    16    25    26   ar
    17     5     6   ar
    18     6     7    1
    19     6     8   ar
    20     8     9   ar
    21     9    10   ar
    22    10    11   ar
    23    18    19   ar
    24    19    14   ar
    25    11     1   ar
    26    10     4   ar
    27    26    21   ar
    28    13    20    1
    29     7    12    1
@<TRIPOS>MOLECULE
*****
 26 29 0 0 0
SMALL
GASTEIGER

@<TRIPOS>ATOM
      1 C          64.1828   89.1058   14.0559 C.ar    1  UNL1        0.0001
      2 C          63.5731   89.2621   12.6944 C.ar    1  UNL1        0.0000
      3 C          63.1118   88.0530   11.9359 C.ar    1  UNL1        0.0001
      4 C          63.2601   86.6877   12.5390 C.ar    1  UNL1        0.0029
      5 C          62.7988   85.4785   11.7805 C.ar    1  UNL1        0.0337
      6 C          62.9471   84.1132   12.3836 C.ar    1  UNL1        0.1336
      7 O          62.4858   82.9041   11.6252 O.3     1  UNL1       -0.5055
      8 C          63.5568   83.9569   13.7452 C.ar    1  UNL1        0.0366
      9 C          64.0182   85.1660   14.5037 C.ar    1  UNL1        0.0031
     10 C          63.8698   86.5314   13.9006 C.ar    1  UNL1        0.0002
     11 C          64.3311   87.7404   14.6590 C.ar    1  UNL1        0.0000
     12 H          62.1050   83.0017   10.7747 H       1  UNL1        0.2922
     13 O          67.5850   92.9778   14.7135 O.3     1  UNL1       -0.5055
     14 C          66.3453   92.2509   15.1432 C.ar    1  UNL1        0.1337
     15 C          65.5669   92.7331   16.3313 C.ar    1  UNL1        0.0366
     16 C          64.3271   92.0062   16.7610 C.ar    1  UNL1        0.0031
     17 C          63.8658   90.7971   16.0025 C.ar    1  UNL1        0.0002
     18 C          64.6441   90.3149   14.8144 C.ar    1  UNL1        0.0030
     19 C          65.8839   91.0419   14.3847 C.ar    1  UNL1        0.0366
     20 H          67.8732   93.7331   15.1873 H       1  UNL1        0.2922
     21 C          62.1891   85.6348   10.4190 C.ar    1  UNL1        0.0029
     22 C          60.8462   86.2861   10.2688 C.ar    1  UNL1        0.0001
     23 C          60.2366   86.4424    8.9072 C.ar    1  UNL1        0.0000
     24 C          60.9698   85.9474    7.6958 C.ar    1  UNL1        0.0000
     25 C          62.3127   85.2962    7.8460 C.ar    1  UNL1        0.0000
     26 C          62.9223   85.1399    9.2076 C.ar    1  UNL1        0.0001
@<TRIPOS>BOND
     1    13    14    1
     2    14    15   ar
     3    15    16   ar
     4    16    17   ar
     5    17    18   ar
     6    18     1    1
     7     1     2   ar
     8     2     3   ar
     9     3     4   ar
    10     4     5   ar
    11     5    21    1
    12    21    22   ar
    13    22    23   ar
    14    23    24   ar
    15    24    25   ar
    16    25    26   ar
    17     5     6   ar
    18     6     7    1
    19     6     8   ar
    20     8     9   ar
    21     9    10   ar
    22    10    11   ar
    23    18    19   ar
    24    19    14   ar
    25    11     1   ar
    26    10     4   ar
    27    26    21   ar
    28    13    20    1
    29     7    12    1
@<TRIPOS>MOLECULE
*****
 26 29 0 0 0
SMALL
GASTEIGER

@<TRIPOS>ATOM
      1 C          62.9236   84.9188   12.5530 C.ar    1  UNL1        0.0001
      2 C          63.5967   85.6981   13.6437 C.ar    1  UNL1        0.0000
      3 C          63.7073   87.1904   13.5406 C.ar    1  UNL1        0.0001
      4 C          63.1448   87.9034   12.3468 C.ar    1  UNL1        0.0029
      5 C          63.2554   89.3958   12.2437 C.ar    1  UNL1        0.0337
      6 C          62.6928   90.1089   11.0499 C.ar    1  UNL1        0.1336
      7 O          62.8034   91.6012   10.9468 O.3     1  UNL1       -0.5055
      8 C          62.0197   89.3295    9.9592 C.ar    1  UNL1        0.0366
      9 C          61.9091   87.8372   10.0623 C.ar    1  UNL1        0.0031
     10 C          62.4717   87.1241   11.2561 C.ar    1  UNL1        0.0002
     11 C          62.3611   85.6318   11.3593 C.ar    1  UNL1        0.0000
     12 H          63.2239   92.0880   11.6281 H       1  UNL1        0.2922
     13 O          63.0602   80.2311   10.3154 O.3     1  UNL1       -0.5055
     14 C          62.8813   81.0826   11.5373 C.ar    1  UNL1        0.1337
     15 C          62.5918   80.4416   12.8623 C.ar    1  UNL1        0.0366
     16 C          62.4130   81.2931   14.0842 C.ar    1  UNL1        0.0031
     17 C          62.5236   82.7855   13.9811 C.ar    1  UNL1        0.0002
     18 C          62.8130   83.4264   12.6561 C.ar    1  UNL1        0.0030
     19 C          62.9919   82.5749   11.4343 C.ar    1  UNL1        0.0366
     20 H          62.9911   79.2989   10.3798 H       1  UNL1        0.2922
     21 C          63.9285   90.1751   13.3343 C.ar    1  UNL1        0.0029
     22 C          65.1707   90.9617   13.0372 C.ar    1  UNL1        0.0001
     23 C          65.8438   91.7410   14.1279 C.ar    1  UNL1        0.0000
     24 C          65.2747   91.7337   15.5157 C.ar    1  UNL1        0.0000
     25 C          64.0326   90.9472   15.8129 C.ar    1  UNL1        0.0000
     26 C          63.3594   90.1679   14.7222 C.ar    1  UNL1        0.0001
@<TRIPOS>BOND
     1    13    14    1
     2    14    15   ar
     3    15    16   ar
     4    16    17   ar
     5    17    18   ar
     6    18     1    1
     7     1     2   ar
     8     2     3   ar
     9     3     4   ar
    10     4     5   ar
    11     5    21    1
    12    21    22   ar
    13    22    23   ar
    14    23    24   ar
    15    24    25   ar
    16    25    26   ar
    17     5     6   ar
    18     6     7    1
    19     6     8   ar
    20     8     9   ar
    21     9    10   ar
    22    10    11   ar
    23    18    19   ar
    24    19    14   ar
    25    11     1   ar
    26    10     4   ar
    27    26    21   ar
    28    13    20    1
    29     7    12    1
@<TRIPOS>MOLECULE
*****
 26 29 0 0 0
SMALL
GASTEIGER

@<TRIPOS>ATOM
      1 C          62.9570   84.9511   12.2886 C.ar    1  UNL1        0.0001
      2 C          63.6271   85.6934   13.4067 C.ar    1  UNL1        0.0000
      3 C          63.7023   87.1911   13.3734 C.ar    1  UNL1        0.0001
      4 C          63.1075   87.9465   12.2221 C.ar    1  UNL1        0.0029
      5 C          63.1828   89.4443   12.1889 C.ar    1  UNL1        0.0337
      6 C          62.5880   90.1998   11.0376 C.ar    1  UNL1        0.1336
      7 O          62.6633   91.6975   11.0044 O.3     1  UNL1       -0.5055
      8 C          61.9179   89.4575    9.9195 C.ar    1  UNL1        0.0366
      9 C          61.8427   87.9598    9.9528 C.ar    1  UNL1        0.0031
     10 C          62.4375   87.2043   11.1041 C.ar    1  UNL1        0.0002
     11 C          62.3622   85.7066   11.1374 C.ar    1  UNL1        0.0000
     12 H          63.0819   92.1612   11.7028 H       1  UNL1        0.2922
     13 O          61.9471   80.5522   14.8635 O.3     1  UNL1       -0.5055
     14 C          62.3767   81.2539   13.6093 C.ar    1  UNL1        0.1337
     15 C          62.7311   80.4578   12.3883 C.ar    1  UNL1        0.0366
     16 C          63.1608   81.1595   11.1341 C.ar    1  UNL1        0.0031
     17 C          63.2361   82.6573   11.1009 C.ar    1  UNL1        0.0002
     18 C          62.8817   83.4533   12.3219 C.ar    1  UNL1        0.0030
     19 C          62.4520   82.7516   13.5761 C.ar    1  UNL1        0.0366
     20 H          61.9000   79.6167   14.8843 H       1  UNL1        0.2922
     21 C          63.8529   90.1866   13.3070 C.ar    1  UNL1        0.0029
     22 C          63.2748   90.1404   14.6903 C.ar    1  UNL1        0.0001
     23 C          63.9449   90.8827   15.8084 C.ar    1  UNL1        0.0000
     24 C          65.1931   91.6711   15.5431 C.ar    1  UNL1        0.0000
     25 C          65.7712   91.7172   14.1597 C.ar    1  UNL1        0.0000
     26 C          65.1012   90.9750   13.0417 C.ar    1  UNL1        0.0001
@<TRIPOS>BOND
     1    13    14    1
     2    14    15   ar
     3    15    16   ar
     4    16    17   ar
     5    17    18   ar
     6    18     1    1
     7     1     2   ar
     8     2     3   ar
     9     3     4   ar
    10     4     5   ar
    11     5    21    1
    12    21    22   ar
    13    22    23   ar
    14    23    24   ar
    15    24    25   ar
    16    25    26   ar
    17     5     6   ar
    18     6     7    1
    19     6     8   ar
    20     8     9   ar
    21     9    10   ar
    22    10    11   ar
    23    18    19   ar
    24    19    14   ar
    25    11     1   ar
    26    10     4   ar
    27    26    21   ar
    28    13    20    1
    29     7    12    1
@<TRIPOS>MOLECULE
*****
 26 29 0 0 0
SMALL
GASTEIGER

@<TRIPOS>ATOM
      1 C          63.9388   89.4999   13.6846 C.ar    1  UNL1        0.0001
      2 C          64.2639   88.0549   13.9218 C.ar    1  UNL1        0.0000
      3 C          63.7404   87.0052   12.9870 C.ar    1  UNL1        0.0001
      4 C          62.8918   87.4004   11.8150 C.ar    1  UNL1        0.0029
      5 C          62.3683   86.3505   10.8801 C.ar    1  UNL1        0.0337
      6 C          61.5197   86.7457    9.7081 C.ar    1  UNL1        0.1336
      7 O          60.9962   85.6960    8.7733 O.3     1  UNL1       -0.5055
      8 C          61.1946   88.1908    9.4709 C.ar    1  UNL1        0.0366
      9 C          61.7181   89.2406   10.4057 C.ar    1  UNL1        0.0031
     10 C          62.5667   88.8454   11.5777 C.ar    1  UNL1        0.0002
     11 C          63.0902   89.8951   12.5125 C.ar    1  UNL1        0.0000
     12 H          61.1993   84.7933    8.9215 H       1  UNL1        0.2922
     13 O          67.4322   93.1743   14.8225 O.3     1  UNL1       -0.5055
     14 C          66.2090   92.3869   15.1883 C.ar    1  UNL1        0.1337
     15 C          65.5093   92.6494   16.4890 C.ar    1  UNL1        0.0366
     16 C          64.2861   91.8620   16.8548 C.ar    1  UNL1        0.0031
     17 C          63.7626   90.8122   15.9200 C.ar    1  UNL1        0.0002
     18 C          64.4623   90.5498   14.6194 C.ar    1  UNL1        0.0030
     19 C          65.6855   91.3371   14.2536 C.ar    1  UNL1        0.0366
     20 H          67.7592   93.8301   15.4065 H       1  UNL1        0.2922
     21 C          62.6934   84.9056   11.1174 C.ar    1  UNL1        0.0029
     22 C          63.4894   84.1395   10.1027 C.ar    1  UNL1        0.0001
     23 C          63.8145   82.6944   10.3400 C.ar    1  UNL1        0.0000
     24 C          63.3436   82.0156   11.5919 C.ar    1  UNL1        0.0000
     25 C          62.5477   82.7816   12.6066 C.ar    1  UNL1        0.0000
     26 C          62.2226   84.2266   12.3694 C.ar    1  UNL1        0.0001
@<TRIPOS>BOND
     1    13    14    1
     2    14    15   ar
     3    15    16   ar
     4    16    17   ar
     5    17    18   ar
     6    18     1    1
     7     1     2   ar
     8     2     3   ar
     9     3     4   ar
    10     4     5   ar
    11     5    21    1
    12    21    22   ar
    13    22    23   ar
    14    23    24   ar
    15    24    25   ar
    16    25    26   ar
    17     5     6   ar
    18     6     7    1
    19     6     8   ar
    20     8     9   ar
    21     9    10   ar
    22    10    11   ar
    23    18    19   ar
    24    19    14   ar
    25    11     1   ar
    26    10     4   ar
    27    26    21   ar
    28    13    20    1
    29     7    12    1
@<TRIPOS>MOLECULE
*****
 26 29 0 0 0
SMALL
GASTEIGER

@<TRIPOS>ATOM
      1 C          63.2816   84.8585   14.2708 C.ar    1  UNL1        0.0001
      2 C          63.7195   85.7946   13.1837 C.ar    1  UNL1        0.0000
      3 C          63.8831   87.2571   13.4741 C.ar    1  UNL1        0.0001
      4 C          63.6088   87.7834   14.8517 C.ar    1  UNL1        0.0029
      5 C          63.7724   89.2460   15.1421 C.ar    1  UNL1        0.0337
      6 C          63.4982   89.7723   16.5197 C.ar    1  UNL1        0.1336
      7 O          63.6617   91.2348   16.8101 O.3     1  UNL1       -0.5055
      8 C          63.0603   88.8362   17.6069 C.ar    1  UNL1        0.0366
      9 C          62.8967   87.3737   17.3164 C.ar    1  UNL1        0.0031
     10 C          63.1710   86.8473   15.9389 C.ar    1  UNL1        0.0002
     11 C          63.0074   85.3849   15.6484 C.ar    1  UNL1        0.0000
     12 H          63.9353   91.8196   16.1310 H       1  UNL1        0.2922
     13 O          60.4057   80.5337   14.4281 O.3     1  UNL1       -0.5055
     14 C          61.6801   81.2336   14.0591 C.ar    1  UNL1        0.1337
     15 C          62.7908   80.4709   13.3997 C.ar    1  UNL1        0.0366
     16 C          64.0651   81.1709   13.0307 C.ar    1  UNL1        0.0031
     17 C          64.2287   82.6334   13.3211 C.ar    1  UNL1        0.0002
     18 C          63.1180   83.3960   13.9804 C.ar    1  UNL1        0.0030
     19 C          61.8437   82.6960   14.3495 C.ar    1  UNL1        0.0366
     20 H          60.3035   79.6201   14.2468 H       1  UNL1        0.2922
     21 C          64.2103   90.1821   14.0549 C.ar    1  UNL1        0.0029
     22 C          65.4915   90.9492   14.1967 C.ar    1  UNL1        0.0001
     23 C          65.9293   91.8854   13.1094 C.ar    1  UNL1        0.0000
     24 C          65.0860   92.0543   11.8806 C.ar    1  UNL1        0.0000
     25 C          63.8048   91.2872   11.7388 C.ar    1  UNL1        0.0000
     26 C          63.3669   90.3511   12.8260 C.ar    1  UNL1        0.0001
@<TRIPOS>BOND
     1    13    14    1
     2    14    15   ar
     3    15    16   ar
     4    16    17   ar
     5    17    18   ar
     6    18     1    1
     7     1     2   ar
     8     2     3   ar
     9     3     4   ar
    10     4     5   ar
    11     5    21    1
    12    21    22   ar
    13    22    23   ar
    14    23    24   ar
    15    24    25   ar
    16    25    26   ar
    17     5     6   ar
    18     6     7    1
    19     6     8   ar
    20     8     9   ar
    21     9    10   ar
    22    10    11   ar
    23    18    19   ar
    24    19    14   ar
    25    11     1   ar
    26    10     4   ar
    27    26    21   ar
    28    13    20    1
    29     7    12    1
@<TRIPOS>MOLECULE
*****
 26 29 0 0 0
SMALL
GASTEIGER

@<TRIPOS>ATOM
      1 C          62.9696   89.7045   11.0314 C.ar    1  UNL1        0.0001
      2 C          63.6086   89.5065   12.3739 C.ar    1  UNL1        0.0000
      3 C          64.5458   90.5432   12.9186 C.ar    1  UNL1        0.0001
      4 C          64.8441   91.7779   12.1208 C.ar    1  UNL1        0.0029
      5 C          65.7815   92.8146   12.6656 C.ar    1  UNL1        0.0337
      6 C          66.0798   94.0493   11.8678 C.ar    1  UNL1        0.1336
      7 O          67.0170   95.0860   12.4125 O.3     1  UNL1       -0.5055
      8 C          65.4407   94.2473   10.5251 C.ar    1  UNL1        0.0366
      9 C          64.5035   93.2106    9.9804 C.ar    1  UNL1        0.0031
     10 C          64.2052   91.9759   10.7783 C.ar    1  UNL1        0.0002
     11 C          63.2679   90.9392   10.2336 C.ar    1  UNL1        0.0000
     12 H          67.4162   94.9623   13.2511 H       1  UNL1        0.2922
     13 O          59.1129   88.3707    7.8148 O.3     1  UNL1       -0.5055
     14 C          60.1039   88.0009    8.8783 C.ar    1  UNL1        0.1337
     15 C          60.1577   86.5944    9.3971 C.ar    1  UNL1        0.0366
     16 C          61.1487   86.2247   10.4606 C.ar    1  UNL1        0.0031
     17 C          62.0860   87.2614   11.0054 C.ar    1  UNL1        0.0002
     18 C          62.0323   88.6678   10.4866 C.ar    1  UNL1        0.0030
     19 C          61.0412   89.0375    9.4231 C.ar    1  UNL1        0.0366
     20 H          58.5274   87.7231    7.4745 H       1  UNL1        0.2922
     21 C          66.4204   92.6166   14.0081 C.ar    1  UNL1        0.0029
     22 C          65.6005   92.7542   15.2566 C.ar    1  UNL1        0.0001
     23 C          66.2396   92.5562   16.5992 C.ar    1  UNL1        0.0000
     24 C          67.6985   92.2206   16.6933 C.ar    1  UNL1        0.0000
     25 C          68.5184   92.0830   15.4448 C.ar    1  UNL1        0.0000
     26 C          67.8794   92.2810   14.1022 C.ar    1  UNL1        0.0001
@<TRIPOS>BOND
     1    13    14    1
     2    14    15   ar
     3    15    16   ar
     4    16    17   ar
     5    17    18   ar
     6    18     1    1
     7     1     2   ar
     8     2     3   ar
     9     3     4   ar
    10     4     5   ar
    11     5    21    1
    12    21    22   ar
    13    22    23   ar
    14    23    24   ar
    15    24    25   ar
    16    25    26   ar
    17     5     6   ar
    18     6     7    1
    19     6     8   ar
    20     8     9   ar
    21     9    10   ar
    22    10    11   ar
    23    18    19   ar
    24    19    14   ar
    25    11     1   ar
    26    10     4   ar
    27    26    21   ar
    28    13    20    1
    29     7    12    1
@<TRIPOS>MOLECULE
*****
 26 29 0 0 0
SMALL
GASTEIGER

@<TRIPOS>ATOM
      1 C          62.9052   83.5432   12.2984 C.ar    1  UNL1        0.0001
      2 C          62.2597   84.4265   11.2722 C.ar    1  UNL1        0.0000
      3 C          62.3573   85.9180   11.3985 C.ar    1  UNL1        0.0001
      4 C          63.1004   86.5261   12.5509 C.ar    1  UNL1        0.0029
      5 C          63.1980   88.0176   12.6771 C.ar    1  UNL1        0.0337
      6 C          63.9411   88.6257   13.8295 C.ar    1  UNL1        0.1336
      7 O          64.0387   90.1172   13.9558 O.3     1  UNL1       -0.5055
      8 C          64.5865   87.7423   14.8557 C.ar    1  UNL1        0.0366
      9 C          64.4889   86.2509   14.7294 C.ar    1  UNL1        0.0031
     10 C          63.7459   85.6428   13.5770 C.ar    1  UNL1        0.0002
     11 C          63.6482   84.1513   13.4508 C.ar    1  UNL1        0.0000
     12 H          63.6355   90.6690   13.3148 H       1  UNL1        0.2922
     13 O          63.0695   79.2547    9.3688 O.3     1  UNL1       -0.5055
     14 C          62.8898   79.9075   10.7074 C.ar    1  UNL1        0.1337
     15 C          62.6124   79.0687   11.9196 C.ar    1  UNL1        0.0366
     16 C          62.4326   79.7214   13.2581 C.ar    1  UNL1        0.0031
     17 C          62.5302   81.2129   13.3844 C.ar    1  UNL1        0.0002
     18 C          62.8076   82.0516   12.1721 C.ar    1  UNL1        0.0030
     19 C          62.9873   81.3989   10.8336 C.ar    1  UNL1        0.0366
     20 H          63.0086   78.3230    9.2900 H       1  UNL1        0.2922
     21 C          62.5525   88.9010   11.6510 C.ar    1  UNL1        0.0029
     22 C          61.1079   88.7073   11.2965 C.ar    1  UNL1        0.0001
     23 C          60.4625   89.5907   10.2703 C.ar    1  UNL1        0.0000
     24 C          61.2616   90.6678    9.5986 C.ar    1  UNL1        0.0000
     25 C          62.7062   90.8615    9.9530 C.ar    1  UNL1        0.0000
     26 C          63.3517   89.9781   10.9792 C.ar    1  UNL1        0.0001
@<TRIPOS>BOND
     1    13    14    1
     2    14    15   ar
     3    15    16   ar
     4    16    17   ar
     5    17    18   ar
     6    18     1    1
     7     1     2   ar
     8     2     3   ar
     9     3     4   ar
    10     4     5   ar
    11     5    21    1
    12    21    22   ar
    13    22    23   ar
    14    23    24   ar
    15    24    25   ar
    16    25    26   ar
    17     5     6   ar
    18     6     7    1
    19     6     8   ar
    20     8     9   ar
    21     9    10   ar
    22    10    11   ar
    23    18    19   ar
    24    19    14   ar
    25    11     1   ar
    26    10     4   ar
    27    26    21   ar
    28    13    20    1
    29     7    12    1
@<TRIPOS>MOLECULE
*****
 26 29 0 0 0
SMALL
GASTEIGER

@<TRIPOS>ATOM
      1 C          62.3573   85.9940   10.4716 C.ar    1  UNL1        0.0001
      2 C          62.4194   87.3988   10.9937 C.ar    1  UNL1        0.0000
      3 C          62.9295   87.6619   12.3795 C.ar    1  UNL1        0.0001
      4 C          63.3776   86.5203   13.2432 C.ar    1  UNL1        0.0029
      5 C          63.8877   86.7835   14.6290 C.ar    1  UNL1        0.0337
      6 C          64.3358   85.6418   15.4927 C.ar    1  UNL1        0.1336
      7 O          64.8459   85.9049   16.8784 O.3     1  UNL1       -0.5055
      8 C          64.2736   84.2370   14.9704 C.ar    1  UNL1        0.0366
      9 C          63.7635   83.9738   13.5846 C.ar    1  UNL1        0.0031
     10 C          63.3154   85.1155   12.7210 C.ar    1  UNL1        0.0002
     11 C          62.8053   84.8524   11.3352 C.ar    1  UNL1        0.0000
     12 H          64.8847   86.7824   17.2046 H       1  UNL1        0.2922
     13 O          58.5623   86.3158    6.9368 O.3     1  UNL1       -0.5055
     14 C          59.9496   85.8917    7.3183 C.ar    1  UNL1        0.1337
     15 C          60.8267   85.2045    6.3141 C.ar    1  UNL1        0.0366
     16 C          62.2140   84.7805    6.6957 C.ar    1  UNL1        0.0031
     17 C          62.7242   85.0437    8.0815 C.ar    1  UNL1        0.0002
     18 C          61.8471   85.7309    9.0857 C.ar    1  UNL1        0.0030
     19 C          60.4598   86.1549    8.7041 C.ar    1  UNL1        0.0366
     20 H          58.2436   86.1514    6.0711 H       1  UNL1        0.2922
     21 C          63.9499   88.1882   15.1512 C.ar    1  UNL1        0.0029
     22 C          64.7665   89.2204   14.4316 C.ar    1  UNL1        0.0001
     23 C          64.8286   90.6253   14.9538 C.ar    1  UNL1        0.0000
     24 C          64.0741   90.9979   16.1955 C.ar    1  UNL1        0.0000
     25 C          63.2574   89.9657   16.9151 C.ar    1  UNL1        0.0000
     26 C          63.1953   88.5609   16.3929 C.ar    1  UNL1        0.0001
@<TRIPOS>BOND
     1    13    14    1
     2    14    15   ar
     3    15    16   ar
     4    16    17   ar
     5    17    18   ar
     6    18     1    1
     7     1     2   ar
     8     2     3   ar
     9     3     4   ar
    10     4     5   ar
    11     5    21    1
    12    21    22   ar
    13    22    23   ar
    14    23    24   ar
    15    24    25   ar
    16    25    26   ar
    17     5     6   ar
    18     6     7    1
    19     6     8   ar
    20     8     9   ar
    21     9    10   ar
    22    10    11   ar
    23    18    19   ar
    24    19    14   ar
    25    11     1   ar
    26    10     4   ar
    27    26    21   ar
    28    13    20    1
    29     7    12    1
