@<TRIPOS>MOLECULE
*****
 33 37 0 0 0
SMALL
GASTEIGER

@<TRIPOS>ATOM
      1 C          62.7597   86.7199   11.8670 C.2     1  UNL1        0.2506
      2 O          63.4843   87.4344   12.9690 O.2     1  UNL1       -0.2699
      3 N          61.6957   87.4311   11.0847 N.am    1  UNL1       -0.2723
      4 C          60.9711   86.7165    9.9827 C.3     1  UNL1        0.1257
      5 C          59.9070   87.4278    9.2003 C.3     1  UNL1        0.1637
      6 O          59.5676   88.8534    9.5199 O.3     1  UNL1       -0.3502
      7 C          60.2922   89.5680   10.6220 C.3     1  UNL1        0.1622
      8 C          61.3562   88.8568   11.4043 C.3     1  UNL1        0.1096
      9 C          63.8716   81.8960   13.4462 C.3     1  UNL1        0.0327
     10 C          63.6551   82.8823   12.3370 C.ar    1  UNL1       -0.0023
     11 C          63.7780   82.4428   10.9081 C.ar    1  UNL1       -0.0027
     12 C          63.5615   83.4290    9.7988 C.ar    1  UNL1       -0.0001
     13 C          63.2220   84.8547   10.1185 C.ar    1  UNL1        0.0061
     14 C          63.0991   85.2942   11.5474 C.ar    1  UNL1        0.0726
     15 C          63.3156   84.3079   12.6566 C.ar    1  UNL1        0.1032
     16 N          63.1927   84.7474   14.0855 N.ar    1  UNL1       -0.1480
     17 N          64.2970   85.3026   14.9354 N.ar    1  UNL1       -0.1447
     18 C          63.7307   85.6071   16.2906 C.ar    1  UNL1        0.1446
     19 C          62.2763   85.2402   16.2783 C.ar    1  UNL1        0.1446
     20 N          61.9439   84.7088   14.9155 N.ar    1  UNL1       -0.1447
     21 C          62.0808   89.5713   12.5063 C.3     1  UNL1        0.0496
     22 C          63.1970   90.5185   12.1792 C.ar    1  UNL1       -0.0083
     23 C          64.1745   90.9216   13.2431 C.ar    1  UNL1        0.0175
     24 C          65.2907   91.8688   12.9159 C.ar    1  UNL1        0.1026
     25 C          65.4293   92.4128   11.5249 C.ar    1  UNL1        0.0218
     26 C          64.4517   92.0096   10.4611 C.ar    1  UNL1        0.0127
     27 C          63.3356   91.0624   10.7882 C.ar    1  UNL1        0.0538
     28 CL         62.3581   90.6593    9.7243 Cl      1  UNL1       -0.0826
     29 N          66.2682   92.2720   13.9798 N.ar    1  UNL1       -0.1478
     30 N          65.9290   92.6512   15.3909 N.ar    1  UNL1       -0.1447
     31 C          67.2077   92.9803   16.1026 C.ar    1  UNL1        0.1446
     32 C          68.3373   92.8046   15.1314 C.ar    1  UNL1        0.1446
     33 N          67.7566   92.3668   13.8194 N.ar    1  UNL1       -0.1447
@<TRIPOS>BOND
     1     9    10    1
     2    10    11   ar
     3    11    12   ar
     4    12    13   ar
     5    13    14   ar
     6    14     1    1
     7     1     2    2
     8     1     3   am
     9     3     4    1
    10     4     5    1
    11     5     6    1
    12     6     7    1
    13     7     8    1
    14     8    21    1
    15    21    22    1
    16    22    23   ar
    17    23    24   ar
    18    24    29    1
    19    29    30   ar
    20    30    31   ar
    21    31    32   ar
    22    32    33   ar
    23    24    25   ar
    24    25    26   ar
    25    26    27   ar
    26    27    28    1
    27    14    15   ar
    28    15    16    1
    29    16    17   ar
    30    17    18   ar
    31    18    19   ar
    32    19    20   ar
    33    15    10   ar
    34    20    16   ar
    35     8     3    1
    36    27    22   ar
    37    33    29   ar
@<TRIPOS>MOLECULE
*****
 33 37 0 0 0
SMALL
GASTEIGER

@<TRIPOS>ATOM
      1 C          62.7726   87.1449   11.8753 C.2     1  UNL1        0.2506
      2 O          63.3183   87.4125   13.2466 O.2     1  UNL1       -0.2699
      3 N          61.9987   88.2091   11.1552 N.am    1  UNL1       -0.2723
      4 C          61.4530   87.9415    9.7839 C.3     1  UNL1        0.1257
      5 C          60.6790   89.0057    9.0638 C.3     1  UNL1        0.1637
      6 O          60.4507   90.3375    9.7152 O.3     1  UNL1       -0.3502
      7 C          60.9964   90.6051   11.0865 C.3     1  UNL1        0.1622
      8 C          61.7703   89.5409   11.8066 C.3     1  UNL1        0.1096
      9 C          63.7225   82.0508   12.2607 C.3     1  UNL1        0.0327
     10 C          63.4759   83.2661   11.4166 C.ar    1  UNL1       -0.0023
     11 C          63.4576   83.1496    9.9213 C.ar    1  UNL1       -0.0027
     12 C          63.2110   84.3648    9.0773 C.ar    1  UNL1       -0.0001
     13 C          62.9827   85.6965    9.7286 C.ar    1  UNL1        0.0061
     14 C          63.0010   85.8130   11.2239 C.ar    1  UNL1        0.0726
     15 C          63.2476   84.5978   12.0680 C.ar    1  UNL1        0.1032
     16 N          63.2659   84.7144   13.5633 N.ar    1  UNL1       -0.1480
     17 N          62.0812   84.5762   14.4730 N.ar    1  UNL1       -0.1447
     18 C          62.5552   84.7660   15.8835 C.ar    1  UNL1        0.1446
     19 C          64.0328   85.0215   15.8455 C.ar    1  UNL1        0.1446
     20 N          64.4720   84.9896   14.4116 N.ar    1  UNL1       -0.1447
     21 C          62.3160   89.8085   13.1779 C.3     1  UNL1        0.0496
     22 C          63.6126   90.5453   13.3386 C.ar    1  UNL1       -0.0083
     23 C          64.1741   91.3337   12.1927 C.ar    1  UNL1        0.0175
     24 C          65.4708   92.0706   12.3534 C.ar    1  UNL1        0.1026
     25 C          66.2059   92.0190   13.6599 C.ar    1  UNL1        0.0218
     26 C          65.6443   91.2305   14.8058 C.ar    1  UNL1        0.0127
     27 C          64.3477   90.4937   14.6451 C.ar    1  UNL1        0.0538
     28 CL         63.7861   89.7053   15.7910 Cl      1  UNL1       -0.0826
     29 N          66.0324   92.8590   11.2075 N.ar    1  UNL1       -0.1478
     30 N          65.5673   94.2117   10.7563 N.ar    1  UNL1       -0.1447
     31 C          66.4050   94.6219    9.5816 C.ar    1  UNL1        0.1446
     32 C          67.3880   93.5226    9.3068 C.ar    1  UNL1        0.1446
     33 N          67.1576   92.4331   10.3117 N.ar    1  UNL1       -0.1447
@<TRIPOS>BOND
     1     9    10    1
     2    10    11   ar
     3    11    12   ar
     4    12    13   ar
     5    13    14   ar
     6    14     1    1
     7     1     2    2
     8     1     3   am
     9     3     4    1
    10     4     5    1
    11     5     6    1
    12     6     7    1
    13     7     8    1
    14     8    21    1
    15    21    22    1
    16    22    23   ar
    17    23    24   ar
    18    24    29    1
    19    29    30   ar
    20    30    31   ar
    21    31    32   ar
    22    32    33   ar
    23    24    25   ar
    24    25    26   ar
    25    26    27   ar
    26    27    28    1
    27    14    15   ar
    28    15    16    1
    29    16    17   ar
    30    17    18   ar
    31    18    19   ar
    32    19    20   ar
    33    15    10   ar
    34    20    16   ar
    35     8     3    1
    36    27    22   ar
    37    33    29   ar
@<TRIPOS>MOLECULE
*****
 33 37 0 0 0
SMALL
GASTEIGER

@<TRIPOS>ATOM
      1 C          63.5363   87.4027   13.3383 C.2     1  UNL1        0.2506
      2 O          63.5396   88.0077   11.9657 O.2     1  UNL1       -0.2699
      3 N          63.3975   88.2823   14.5453 N.am    1  UNL1       -0.2723
      4 C          63.3942   87.6772   15.9179 C.3     1  UNL1        0.1257
      5 C          63.2554   88.5569   17.1250 C.3     1  UNL1        0.1637
      6 O          63.1200   90.0416   16.9594 O.3     1  UNL1       -0.3502
      7 C          63.1234   90.6466   15.5869 C.3     1  UNL1        0.1622
      8 C          63.2621   89.7670   14.3798 C.3     1  UNL1        0.1096
      9 C          62.5884   82.5813   11.6481 C.3     1  UNL1        0.0327
     10 C          63.1978   83.5074   12.6587 C.ar    1  UNL1       -0.0023
     11 C          63.9426   82.9487   13.8347 C.ar    1  UNL1       -0.0027
     12 C          64.5519   83.8746   14.8453 C.ar    1  UNL1       -0.0001
     13 C          64.4165   85.3592   14.6798 C.ar    1  UNL1        0.0061
     14 C          63.6717   85.9179   13.5037 C.ar    1  UNL1        0.0726
     15 C          63.0623   84.9920   12.4932 C.ar    1  UNL1        0.1032
     16 N          62.3175   85.5507   11.3171 N.ar    1  UNL1       -0.1480
     17 N          62.7149   85.4161    9.8770 N.ar    1  UNL1       -0.1447
     18 C          61.6876   86.1243    9.0445 C.ar    1  UNL1        0.1446
     19 C          60.6553   86.6967    9.9701 C.ar    1  UNL1        0.1446
     20 N          61.0446   86.3421   11.3747 N.ar    1  UNL1       -0.1447
     21 C          63.2655   90.3721   13.0073 C.3     1  UNL1        0.0496
     22 C          64.3774   91.2906   12.5952 C.ar    1  UNL1       -0.0083
     23 C          65.4518   91.6548   13.5765 C.ar    1  UNL1        0.0175
     24 C          66.5639   92.5733   13.1645 C.ar    1  UNL1        0.1026
     25 C          66.6014   93.1276   11.7712 C.ar    1  UNL1        0.0218
     26 C          65.5269   92.7634   10.7899 C.ar    1  UNL1        0.0127
     27 C          64.4150   91.8449   11.2019 C.ar    1  UNL1        0.0538
     28 CL         63.3406   91.4807   10.2207 Cl      1  UNL1       -0.0826
     29 N          67.6383   92.9375   14.1458 N.ar    1  UNL1       -0.1478
     30 N          67.4827   93.8524   15.3242 N.ar    1  UNL1       -0.1447
     31 C          68.8052   93.9311   16.0277 C.ar    1  UNL1        0.1446
     32 C          69.7781   93.0649   15.2840 C.ar    1  UNL1        0.1446
     33 N          69.0569   92.4508   14.1209 N.ar    1  UNL1       -0.1447
@<TRIPOS>BOND
     1     9    10    1
     2    10    11   ar
     3    11    12   ar
     4    12    13   ar
     5    13    14   ar
     6    14     1    1
     7     1     2    2
     8     1     3   am
     9     3     4    1
    10     4     5    1
    11     5     6    1
    12     6     7    1
    13     7     8    1
    14     8    21    1
    15    21    22    1
    16    22    23   ar
    17    23    24   ar
    18    24    29    1
    19    29    30   ar
    20    30    31   ar
    21    31    32   ar
    22    32    33   ar
    23    24    25   ar
    24    25    26   ar
    25    26    27   ar
    26    27    28    1
    27    14    15   ar
    28    15    16    1
    29    16    17   ar
    30    17    18   ar
    31    18    19   ar
    32    19    20   ar
    33    15    10   ar
    34    20    16   ar
    35     8     3    1
    36    27    22   ar
    37    33    29   ar
@<TRIPOS>MOLECULE
*****
 33 37 0 0 0
SMALL
GASTEIGER

@<TRIPOS>ATOM
      1 C          64.0263   90.5829   13.3769 C.2     1  UNL1        0.2506
      2 O          63.4715   91.3104   12.1882 O.2     1  UNL1       -0.2699
      3 N          63.9075   89.0902   13.4652 N.am    1  UNL1       -0.2723
      4 C          64.4623   88.3627   14.6538 C.3     1  UNL1        0.1257
      5 C          64.3435   86.8700   14.7421 C.3     1  UNL1        0.1637
      6 O          63.6700   86.1049   13.6417 O.3     1  UNL1       -0.3502
      7 C          63.1152   86.8324   12.4530 C.3     1  UNL1        0.1622
      8 C          63.2340   88.3250   12.3647 C.3     1  UNL1        0.1096
      9 C          67.7950   93.7804   14.9810 C.3     1  UNL1        0.0327
     10 C          66.5841   92.9468   15.2794 C.ar    1  UNL1       -0.0023
     11 C          66.0468   92.8784   16.6781 C.ar    1  UNL1       -0.0027
     12 C          64.8360   92.0448   16.9765 C.ar    1  UNL1       -0.0001
     13 C          64.1625   91.2797   15.8761 C.ar    1  UNL1        0.0061
     14 C          64.6998   91.3481   14.4773 C.ar    1  UNL1        0.0726
     15 C          65.9106   92.1817   14.1790 C.ar    1  UNL1        0.1032
     16 N          66.4480   92.2501   12.7802 N.ar    1  UNL1       -0.1480
     17 N          67.7531   91.6810   12.3082 N.ar    1  UNL1       -0.1447
     18 C          67.8863   91.9788   10.8441 C.ar    1  UNL1        0.1446
     19 C          66.6634   92.7319   10.4112 C.ar    1  UNL1        0.1446
     20 N          65.7745   92.8996   11.6077 N.ar    1  UNL1       -0.1447
     21 C          62.6792   89.0526   11.1761 C.3     1  UNL1        0.0496
     22 C          61.6318   88.4032   10.3210 C.ar    1  UNL1       -0.0083
     23 C          62.0230   87.3536    9.3234 C.ar    1  UNL1        0.0175
     24 C          60.9756   86.7041    8.4682 C.ar    1  UNL1        0.1026
     25 C          59.5371   87.1043    8.6108 C.ar    1  UNL1        0.0218
     26 C          59.1459   88.1539    9.6084 C.ar    1  UNL1        0.0127
     27 C          60.1932   88.8033   10.4635 C.ar    1  UNL1        0.0538
     28 CL         59.8020   89.8529   11.4611 Cl      1  UNL1       -0.0826
     29 N          61.3669   85.6545    7.4706 N.ar    1  UNL1       -0.1478
     30 N          60.4338   84.9107    6.5617 N.ar    1  UNL1       -0.1447
     31 C          61.2501   83.9609    5.7361 C.ar    1  UNL1        0.1446
     32 C          62.6877   84.1177    6.1348 C.ar    1  UNL1        0.1446
     33 N          62.7598   85.1644    7.2068 N.ar    1  UNL1       -0.1447
@<TRIPOS>BOND
     1     9    10    1
     2    10    11   ar
     3    11    12   ar
     4    12    13   ar
     5    13    14   ar
     6    14     1    1
     7     1     2    2
     8     1     3   am
     9     3     4    1
    10     4     5    1
    11     5     6    1
    12     6     7    1
    13     7     8    1
    14     8    21    1
    15    21    22    1
    16    22    23   ar
    17    23    24   ar
    18    24    29    1
    19    29    30   ar
    20    30    31   ar
    21    31    32   ar
    22    32    33   ar
    23    24    25   ar
    24    25    26   ar
    25    26    27   ar
    26    27    28    1
    27    14    15   ar
    28    15    16    1
    29    16    17   ar
    30    17    18   ar
    31    18    19   ar
    32    19    20   ar
    33    15    10   ar
    34    20    16   ar
    35     8     3    1
    36    27    22   ar
    37    33    29   ar
@<TRIPOS>MOLECULE
*****
 33 37 0 0 0
SMALL
GASTEIGER

@<TRIPOS>ATOM
      1 C          62.6841   88.7094   11.6545 C.2     1  UNL1        0.2506
      2 O          62.5131   90.1993   11.6228 O.2     1  UNL1       -0.2699
      3 N          63.3732   88.0581   12.8167 N.am    1  UNL1       -0.2723
      4 C          63.5441   86.5682   12.8483 C.3     1  UNL1        0.1257
      5 C          64.2333   85.9168   14.0105 C.3     1  UNL1        0.1637
      6 O          64.7515   86.7553   15.1411 O.3     1  UNL1       -0.3502
      7 C          64.5806   88.2452   15.1095 C.3     1  UNL1        0.1622
      8 C          63.8915   88.8966   13.9473 C.3     1  UNL1        0.1096
      9 C          58.7799   87.2668    8.5437 C.3     1  UNL1        0.0327
     10 C          60.2138   87.1496    8.9685 C.ar    1  UNL1       -0.0023
     11 C          61.1294   86.1939    8.2626 C.ar    1  UNL1       -0.0027
     12 C          62.5632   86.0767    8.6873 C.ar    1  UNL1       -0.0001
     13 C          63.0814   86.9152    9.8179 C.ar    1  UNL1        0.0061
     14 C          62.1658   87.8709   10.5238 C.ar    1  UNL1        0.0726
     15 C          60.7320   87.9881   10.0991 C.ar    1  UNL1        0.1032
     16 N          59.8164   88.9438   10.8050 N.ar    1  UNL1       -0.1480
     17 N          59.5891   90.3805   10.4387 N.ar    1  UNL1       -0.1447
     18 C          58.5996   90.9552   11.4085 C.ar    1  UNL1        0.1446
     19 C          58.2152   89.8737   12.3741 C.ar    1  UNL1        0.1446
     20 N          58.9672   88.6306   12.0012 N.ar    1  UNL1       -0.1447
     21 C          63.7206   90.3865   13.9157 C.3     1  UNL1        0.0496
     22 C          64.9255   91.2791   13.8816 C.ar    1  UNL1       -0.0083
     23 C          65.5968   91.5833   12.5752 C.ar    1  UNL1        0.0175
     24 C          66.8018   92.4760   12.5411 C.ar    1  UNL1        0.1026
     25 C          67.3356   93.0644   13.8134 C.ar    1  UNL1        0.0218
     26 C          66.6643   92.7601   15.1199 C.ar    1  UNL1        0.0127
     27 C          65.4593   91.8675   15.1540 C.ar    1  UNL1        0.0538
     28 CL         64.7881   91.5633   16.4604 Cl      1  UNL1       -0.0826
     29 N          67.4731   92.7802   11.2346 N.ar    1  UNL1       -0.1478
     30 N          68.4763   91.9114   10.5355 N.ar    1  UNL1       -0.1447
     31 C          68.8822   92.6009    9.2667 C.ar    1  UNL1        0.1446
     32 C          68.1298   93.8958    9.1816 C.ar    1  UNL1        0.1446
     33 N          67.2589   94.0066   10.3979 N.ar    1  UNL1       -0.1447
@<TRIPOS>BOND
     1     9    10    1
     2    10    11   ar
     3    11    12   ar
     4    12    13   ar
     5    13    14   ar
     6    14     1    1
     7     1     2    2
     8     1     3   am
     9     3     4    1
    10     4     5    1
    11     5     6    1
    12     6     7    1
    13     7     8    1
    14     8    21    1
    15    21    22    1
    16    22    23   ar
    17    23    24   ar
    18    24    29    1
    19    29    30   ar
    20    30    31   ar
    21    31    32   ar
    22    32    33   ar
    23    24    25   ar
    24    25    26   ar
    25    26    27   ar
    26    27    28    1
    27    14    15   ar
    28    15    16    1
    29    16    17   ar
    30    17    18   ar
    31    18    19   ar
    32    19    20   ar
    33    15    10   ar
    34    20    16   ar
    35     8     3    1
    36    27    22   ar
    37    33    29   ar
@<TRIPOS>MOLECULE
*****
 33 37 0 0 0
SMALL
GASTEIGER

@<TRIPOS>ATOM
      1 C          62.7338   88.9683   11.6528 C.2     1  UNL1        0.2506
      2 O          62.9323   87.8048   12.5785 O.2     1  UNL1       -0.2699
      3 N          61.6905   88.9013   10.5771 N.am    1  UNL1       -0.2723
      4 C          61.4920   90.0647    9.6514 C.3     1  UNL1        0.1257
      5 C          60.4487   89.9978    8.5757 C.3     1  UNL1        0.1637
      6 O          59.6040   88.7674    8.4258 O.3     1  UNL1       -0.3502
      7 C          59.8025   87.6039    9.3515 C.3     1  UNL1        0.1622
      8 C          60.8457   87.6709   10.4272 C.3     1  UNL1        0.1096
      9 C          65.5335   92.1681   14.6400 C.3     1  UNL1        0.0327
     10 C          64.9784   91.7986   13.2963 C.ar    1  UNL1       -0.0023
     11 C          65.2681   92.6594   12.1026 C.ar    1  UNL1       -0.0027
     12 C          64.7131   92.2899   10.7590 C.ar    1  UNL1       -0.0001
     13 C          63.8683   91.0596   10.6090 C.ar    1  UNL1        0.0061
     14 C          63.5786   90.1987   11.8028 C.ar    1  UNL1        0.0726
     15 C          64.1336   90.5682   13.1464 C.ar    1  UNL1        0.1032
     16 N          63.8439   89.7073   14.3401 N.ar    1  UNL1       -0.1480
     17 N          64.5340   88.4218   14.6885 N.ar    1  UNL1       -0.1447
     18 C          63.9299   87.9008   15.9587 C.ar    1  UNL1        0.1446
     19 C          62.8663   88.8642   16.3954 C.ar    1  UNL1        0.1446
     20 N          62.8132   89.9807   15.3950 N.ar    1  UNL1       -0.1447
     21 C          61.0443   86.5074   11.3529 C.3     1  UNL1        0.0496
     22 C          61.9442   85.3760   10.9532 C.ar    1  UNL1       -0.0083
     23 C          62.0964   84.1851   11.8524 C.ar    1  UNL1        0.0175
     24 C          62.9964   83.0536   11.4527 C.ar    1  UNL1        0.1026
     25 C          63.7442   83.1130   10.1537 C.ar    1  UNL1        0.0218
     26 C          63.5919   84.3039    9.2545 C.ar    1  UNL1        0.0127
     27 C          62.6920   85.4354    9.6542 C.ar    1  UNL1        0.0538
     28 CL         62.5398   86.6262    8.7550 Cl      1  UNL1       -0.0826
     29 N          63.1486   81.8627   12.3519 N.ar    1  UNL1       -0.1478
     30 N          62.5205   80.5163   12.1458 N.ar    1  UNL1       -0.1447
     31 C          62.9393   79.6306   13.2817 C.ar    1  UNL1        0.1446
     32 C          63.8263   80.4297   14.1898 C.ar    1  UNL1        0.1446
     33 N          63.9557   81.8092   13.6152 N.ar    1  UNL1       -0.1447
@<TRIPOS>BOND
     1     9    10    1
     2    10    11   ar
     3    11    12   ar
     4    12    13   ar
     5    13    14   ar
     6    14     1    1
     7     1     2    2
     8     1     3   am
     9     3     4    1
    10     4     5    1
    11     5     6    1
    12     6     7    1
    13     7     8    1
    14     8    21    1
    15    21    22    1
    16    22    23   ar
    17    23    24   ar
    18    24    29    1
    19    29    30   ar
    20    30    31   ar
    21    31    32   ar
    22    32    33   ar
    23    24    25   ar
    24    25    26   ar
    25    26    27   ar
    26    27    28    1
    27    14    15   ar
    28    15    16    1
    29    16    17   ar
    30    17    18   ar
    31    18    19   ar
    32    19    20   ar
    33    15    10   ar
    34    20    16   ar
    35     8     3    1
    36    27    22   ar
    37    33    29   ar
@<TRIPOS>MOLECULE
*****
 33 37 0 0 0
SMALL
GASTEIGER

@<TRIPOS>ATOM
      1 C          62.8548   88.0829   11.0644 C.2     1  UNL1        0.2506
      2 O          63.1778   89.5374   10.8911 O.2     1  UNL1       -0.2699
      3 N          63.2530   87.3709   12.3231 N.am    1  UNL1       -0.2723
      4 C          62.9299   85.9164   12.4964 C.3     1  UNL1        0.1257
      5 C          63.3281   85.2045   13.7552 C.3     1  UNL1        0.1637
      6 O          64.0494   85.9470   14.8407 O.3     1  UNL1       -0.3502
      7 C          64.3724   87.4015   14.6675 C.3     1  UNL1        0.1622
      8 C          63.9742   88.1135   13.4087 C.3     1  UNL1        0.1096
      9 C          58.5117   87.1544    8.3669 C.3     1  UNL1        0.0327
     10 C          59.9620   86.8761    8.6301 C.ar    1  UNL1       -0.0023
     11 C          60.6911   85.8552    7.8077 C.ar    1  UNL1       -0.0027
     12 C          62.1413   85.5769    8.0709 C.ar    1  UNL1       -0.0001
     13 C          62.8625   86.3195    9.1564 C.ar    1  UNL1        0.0061
     14 C          62.1335   87.3403    9.9788 C.ar    1  UNL1        0.0726
     15 C          60.6832   87.6186    9.7157 C.ar    1  UNL1        0.1032
     16 N          59.9542   88.6395   10.5381 N.ar    1  UNL1       -0.1480
     17 N          59.8025   90.0943   10.2058 N.ar    1  UNL1       -0.1447
     18 C          59.0034   90.7388   11.2995 C.ar    1  UNL1        0.1446
     19 C          58.6612   89.6822   12.3077 C.ar    1  UNL1        0.1446
     20 N          59.2489   88.3848   11.8371 N.ar    1  UNL1       -0.1447
     21 C          64.2973   89.5680   13.2355 C.3     1  UNL1        0.0496
     22 C          64.5792   90.4218   14.4361 C.ar    1  UNL1       -0.0083
     23 C          65.8868   91.1481   14.5495 C.ar    1  UNL1        0.0175
     24 C          66.1688   92.0020   15.7501 C.ar    1  UNL1        0.1026
     25 C          65.1432   92.1296   16.8373 C.ar    1  UNL1        0.0218
     26 C          63.8356   91.4033   16.7238 C.ar    1  UNL1        0.0127
     27 C          63.5537   90.5495   15.5232 C.ar    1  UNL1        0.0538
     28 CL         62.2461   89.8232   15.4098 Cl      1  UNL1       -0.0826
     29 N          67.4763   92.7282   15.8635 N.ar    1  UNL1       -0.1478
     30 N          68.8086   92.1046   16.1572 N.ar    1  UNL1       -0.1447
     31 C          69.8368   93.1965   16.1784 C.ar    1  UNL1        0.1446
     32 C          69.1401   94.4949   15.8977 C.ar    1  UNL1        0.1446
     33 N          67.6812   94.2055   15.7032 N.ar    1  UNL1       -0.1447
@<TRIPOS>BOND
     1     9    10    1
     2    10    11   ar
     3    11    12   ar
     4    12    13   ar
     5    13    14   ar
     6    14     1    1
     7     1     2    2
     8     1     3   am
     9     3     4    1
    10     4     5    1
    11     5     6    1
    12     6     7    1
    13     7     8    1
    14     8    21    1
    15    21    22    1
    16    22    23   ar
    17    23    24   ar
    18    24    29    1
    19    29    30   ar
    20    30    31   ar
    21    31    32   ar
    22    32    33   ar
    23    24    25   ar
    24    25    26   ar
    25    26    27   ar
    26    27    28    1
    27    14    15   ar
    28    15    16    1
    29    16    17   ar
    30    17    18   ar
    31    18    19   ar
    32    19    20   ar
    33    15    10   ar
    34    20    16   ar
    35     8     3    1
    36    27    22   ar
    37    33    29   ar
@<TRIPOS>MOLECULE
*****
 33 37 0 0 0
SMALL
GASTEIGER

@<TRIPOS>ATOM
      1 C          63.9263   84.7652   13.8395 C.2     1  UNL1        0.2506
      2 O          64.7510   85.4961   12.8218 O.2     1  UNL1       -0.2699
      3 N          63.4120   85.4893   15.0482 N.am    1  UNL1       -0.2723
      4 C          62.5873   84.7584   16.0659 C.3     1  UNL1        0.1257
      5 C          62.0729   85.4826   17.2747 C.3     1  UNL1        0.1637
      6 O          62.3832   86.9377   17.4656 O.3     1  UNL1       -0.3502
      7 C          63.2078   87.6686   16.4479 C.3     1  UNL1        0.1622
      8 C          63.7222   86.9445   15.2393 C.3     1  UNL1        0.1096
      9 C          62.4923   80.8369   10.7553 C.3     1  UNL1        0.0327
     10 C          62.8991   81.3460   12.1064 C.ar    1  UNL1       -0.0023
     11 C          62.9957   80.4000   13.2665 C.ar    1  UNL1       -0.0027
     12 C          63.4024   80.9090   14.6175 C.ar    1  UNL1       -0.0001
     13 C          63.7126   82.3641   14.8085 C.ar    1  UNL1        0.0061
     14 C          63.6161   83.3101   13.6485 C.ar    1  UNL1        0.0726
     15 C          63.2093   82.8010   12.2974 C.ar    1  UNL1        0.1032
     16 N          63.1128   83.7470   11.1374 N.ar    1  UNL1       -0.1480
     17 N          62.1797   84.9164   11.0286 N.ar    1  UNL1       -0.1447
     18 C          62.4226   85.5819    9.7064 C.ar    1  UNL1        0.1446
     19 C          63.5059   84.8238    8.9980 C.ar    1  UNL1        0.1446
     20 N          63.9324   83.6898    9.8824 N.ar    1  UNL1       -0.1447
     21 C          64.5468   87.6754   14.2215 C.3     1  UNL1        0.0496
     22 C          63.9090   88.7096   13.3421 C.ar    1  UNL1       -0.0083
     23 C          62.8910   88.2999   12.3195 C.ar    1  UNL1        0.0175
     24 C          62.2532   89.3342   11.4400 C.ar    1  UNL1        0.1026
     25 C          62.6333   90.7781   11.5831 C.ar    1  UNL1        0.0218
     26 C          63.6514   91.1878   12.6058 C.ar    1  UNL1        0.0127
     27 C          64.2892   90.1536   13.4853 C.ar    1  UNL1        0.0538
     28 CL         65.3072   90.5633   14.5079 Cl      1  UNL1       -0.0826
     29 N          61.2352   88.9245   10.4173 N.ar    1  UNL1       -0.1478
     30 N          60.2072   87.8443   10.5802 N.ar    1  UNL1       -0.1447
     31 C          59.4031   87.7752    9.3158 C.ar    1  UNL1        0.1446
     32 C          59.9341   88.8128    8.3715 C.ar    1  UNL1        0.1446
     33 N          61.0664   89.5230    9.0523 N.ar    1  UNL1       -0.1447
@<TRIPOS>BOND
     1     9    10    1
     2    10    11   ar
     3    11    12   ar
     4    12    13   ar
     5    13    14   ar
     6    14     1    1
     7     1     2    2
     8     1     3   am
     9     3     4    1
    10     4     5    1
    11     5     6    1
    12     6     7    1
    13     7     8    1
    14     8    21    1
    15    21    22    1
    16    22    23   ar
    17    23    24   ar
    18    24    29    1
    19    29    30   ar
    20    30    31   ar
    21    31    32   ar
    22    32    33   ar
    23    24    25   ar
    24    25    26   ar
    25    26    27   ar
    26    27    28    1
    27    14    15   ar
    28    15    16    1
    29    16    17   ar
    30    17    18   ar
    31    18    19   ar
    32    19    20   ar
    33    15    10   ar
    34    20    16   ar
    35     8     3    1
    36    27    22   ar
    37    33    29   ar
