@<TRIPOS>MOLECULE
*****
 27 30 0 0 0
SMALL
GASTEIGER

@<TRIPOS>ATOM
      1 C          63.7241   88.4136   13.3401 C.ar    1  UNL1        0.0926
      2 C          64.3000   89.4145   14.2976 C.ar    1  UNL1        0.0467
      3 C          64.2262   90.8797   13.9854 C.ar    1  UNL1        0.1648
      4 C          63.5764   91.3442   12.7156 C.ar    1  UNL1        0.1395
      5 N          63.0005   90.3434   11.7582 N.ar    1  UNL1       -0.2060
      6 N          62.3047   90.5017   10.4388 N.ar    1  UNL1       -0.1408
      7 C          61.9485   89.1343    9.9357 C.ar    1  UNL1        0.2213
      8 N          62.4242   88.1308   10.9440 N.ar    1  UNL1       -0.2033
      9 C          63.0744   88.8781   12.0705 C.ar    1  UNL1        0.1702
     10 O          64.6251   86.4686   14.8082 O.2     1  UNL1       -0.2697
     11 C          63.7980   86.9484   13.6524 C.2     1  UNL1        0.2536
     12 N          63.0448   85.9629   12.8089 N.am    1  UNL1       -0.2657
     13 H          62.5020   86.2777   12.0503 H       1  UNL1        0.1566
     14 C          63.1187   84.4976   13.1212 C.ar    1  UNL1        0.1345
     15 C          63.9752   83.5946   12.2839 C.ar    1  UNL1        0.0368
     16 C          64.0491   82.1293   12.5961 C.ar    1  UNL1        0.0341
     17 C          63.2667   81.5670   13.7457 C.ar    1  UNL1        0.1593
     18 F          63.3406   80.1018   14.0580 F       1  UNL1       -0.2025
     19 C          62.4102   82.4701   14.5830 C.ar    1  UNL1        0.1298
     20 N          62.3363   83.9353   14.2708 N.ar    1  UNL1       -0.2267
     21 O          64.8021   91.8805   14.9428 O.3     1  UNL1       -0.4488
     22 C          66.2733   92.1726   14.9276 C.ar    1  UNL1        0.1835
     23 C          66.9389   92.7356   16.1482 C.ar    1  UNL1        0.1396
     24 N          68.4101   93.0277   16.1330 N.ar    1  UNL1       -0.2192
     25 C          69.2157   92.7568   14.8970 C.ar    1  UNL1        0.1991
     26 N          68.5502   92.1938   13.6764 N.ar    1  UNL1       -0.2192
     27 C          67.0789   91.9017   13.6917 C.ar    1  UNL1        0.1396
@<TRIPOS>BOND
     1    10    11    2
     2    11    12   am
     3    12    14    1
     4    14    15   ar
     5    15    16   ar
     6    16    17   ar
     7    17    18    1
     8    17    19   ar
     9    19    20   ar
    10    11     1    1
    11     1     2   ar
    12     2     3   ar
    13     3    21    1
    14    21    22    1
    15    22    23   ar
    16    23    24   ar
    17    24    25   ar
    18    25    26   ar
    19    26    27   ar
    20     3     4   ar
    21     4     5   ar
    22     5     6   ar
    23     6     7   ar
    24     7     8   ar
    25     8     9   ar
    26    20    14   ar
    27     9     1   ar
    28    27    22   ar
    29     9     5   ar
    30    12    13    1
@<TRIPOS>MOLECULE
*****
 27 30 0 0 0
SMALL
GASTEIGER

@<TRIPOS>ATOM
      1 C          64.0569   91.2360   11.8610 C.ar    1  UNL1        0.0926
      2 C          65.0637   92.2515   11.4083 C.ar    1  UNL1        0.0467
      3 C          65.9562   92.9213   12.4105 C.ar    1  UNL1        0.1648
      4 C          65.8421   92.5755   13.8657 C.ar    1  UNL1        0.1395
      5 N          64.8353   91.5600   14.3185 N.ar    1  UNL1       -0.2060
      6 N          64.4956   91.0195   15.6759 N.ar    1  UNL1       -0.1408
      7 C          63.3931   90.0157   15.5124 C.ar    1  UNL1        0.2213
      8 N          63.0513   89.9358   14.0541 N.ar    1  UNL1       -0.2033
      9 C          63.9427   90.8902   13.3162 C.ar    1  UNL1        0.1702
     10 O          62.7845   91.2819    9.5963 O.2     1  UNL1       -0.2697
     11 C          63.1643   90.5662   10.8587 C.2     1  UNL1        0.2536
     12 N          62.6515   89.1808   11.1187 N.am    1  UNL1       -0.2657
     13 H          62.9007   88.7111   11.9473 H       1  UNL1        0.1566
     14 C          61.7589   88.5111   10.1163 C.ar    1  UNL1        0.1345
     15 C          62.0291   87.0959    9.6990 C.ar    1  UNL1        0.0368
     16 C          61.1366   86.4261    8.6966 C.ar    1  UNL1        0.0341
     17 C          59.9738   87.1715    8.1115 C.ar    1  UNL1        0.1593
     18 F          59.0813   86.5018    7.1092 F       1  UNL1       -0.2025
     19 C          59.7037   88.5868    8.5289 C.ar    1  UNL1        0.1298
     20 N          60.5962   89.2565    9.5312 N.ar    1  UNL1       -0.2267
     21 O          66.9631   93.9369   11.9577 O.3     1  UNL1       -0.4488
     22 C          66.7475   94.6873   10.6769 C.ar    1  UNL1        0.1835
     23 C          65.7948   95.8452   10.6373 C.ar    1  UNL1        0.1396
     24 N          65.5793   96.5956    9.3565 N.ar    1  UNL1       -0.2192
     25 C          66.3164   96.1881    8.1153 C.ar    1  UNL1        0.1991
     26 N          67.2691   95.0302    8.1549 N.ar    1  UNL1       -0.2192
     27 C          67.4847   94.2798    9.4357 C.ar    1  UNL1        0.1396
@<TRIPOS>BOND
     1    10    11    2
     2    11    12   am
     3    12    14    1
     4    14    15   ar
     5    15    16   ar
     6    16    17   ar
     7    17    18    1
     8    17    19   ar
     9    19    20   ar
    10    11     1    1
    11     1     2   ar
    12     2     3   ar
    13     3    21    1
    14    21    22    1
    15    22    23   ar
    16    23    24   ar
    17    24    25   ar
    18    25    26   ar
    19    26    27   ar
    20     3     4   ar
    21     4     5   ar
    22     5     6   ar
    23     6     7   ar
    24     7     8   ar
    25     8     9   ar
    26    20    14   ar
    27     9     1   ar
    28    27    22   ar
    29     9     5   ar
    30    12    13    1
@<TRIPOS>MOLECULE
*****
 27 30 0 0 0
SMALL
GASTEIGER

@<TRIPOS>ATOM
      1 C          62.7990   88.1184   11.9839 C.ar    1  UNL1        0.0926
      2 C          63.4082   89.3408   12.6041 C.ar    1  UNL1        0.0467
      3 C          63.1203   90.6961   12.0296 C.ar    1  UNL1        0.1648
      4 C          62.2230   90.8292   10.8349 C.ar    1  UNL1        0.1395
      5 N          61.6138   89.6068   10.2147 N.ar    1  UNL1       -0.2060
      6 N          60.6976   89.4275    9.0406 N.ar    1  UNL1       -0.1408
      7 C          60.4194   87.9614    8.8895 C.ar    1  UNL1        0.2213
      8 N          61.1636   87.2345    9.9701 N.ar    1  UNL1       -0.2033
      9 C          61.9018   88.2514   10.7892 C.ar    1  UNL1        0.1702
     10 O          63.8811   86.6385   13.8249 O.2     1  UNL1       -0.2697
     11 C          63.0870   86.7630   12.5583 C.2     1  UNL1        0.2536
     12 N          62.5809   85.5322   11.8664 N.am    1  UNL1       -0.2657
     13 H          62.0597   85.6139   11.0352 H       1  UNL1        0.1566
     14 C          62.8689   84.1768   12.4410 C.ar    1  UNL1        0.1345
     15 C          63.7082   83.1995   11.6726 C.ar    1  UNL1        0.0368
     16 C          63.9963   81.8441   12.2471 C.ar    1  UNL1        0.0341
     17 C          63.4451   81.4661   13.5899 C.ar    1  UNL1        0.1593
     18 F          63.7332   80.1108   14.1644 F       1  UNL1       -0.2025
     19 C          62.6058   82.4435   14.3583 C.ar    1  UNL1        0.1298
     20 N          62.3178   83.7988   13.7838 N.ar    1  UNL1       -0.2267
     21 O          63.7295   91.9185   12.6499 O.3     1  UNL1       -0.4488
     22 C          65.1785   91.9198   13.0379 C.ar    1  UNL1        0.1835
     23 C          66.2142   92.4063   12.0680 C.ar    1  UNL1        0.1396
     24 N          67.6631   92.4076   12.4560 N.ar    1  UNL1       -0.2192
     25 C          68.0764   91.9224   13.8138 C.ar    1  UNL1        0.1991
     26 N          67.0407   91.4359   14.7837 N.ar    1  UNL1       -0.2192
     27 C          65.5918   91.4346   14.3957 C.ar    1  UNL1        0.1396
@<TRIPOS>BOND
     1    10    11    2
     2    11    12   am
     3    12    14    1
     4    14    15   ar
     5    15    16   ar
     6    16    17   ar
     7    17    18    1
     8    17    19   ar
     9    19    20   ar
    10    11     1    1
    11     1     2   ar
    12     2     3   ar
    13     3    21    1
    14    21    22    1
    15    22    23   ar
    16    23    24   ar
    17    24    25   ar
    18    25    26   ar
    19    26    27   ar
    20     3     4   ar
    21     4     5   ar
    22     5     6   ar
    23     6     7   ar
    24     7     8   ar
    25     8     9   ar
    26    20    14   ar
    27     9     1   ar
    28    27    22   ar
    29     9     5   ar
    30    12    13    1
@<TRIPOS>MOLECULE
*****
 27 30 0 0 0
SMALL
GASTEIGER

@<TRIPOS>ATOM
      1 C          62.7581   84.8565   12.2784 C.ar    1  UNL1        0.0926
      2 C          63.1160   85.6992   13.4666 C.ar    1  UNL1        0.0467
      3 C          63.6595   85.0544   14.7070 C.ar    1  UNL1        0.1648
      4 C          63.8452   83.5668   14.7593 C.ar    1  UNL1        0.1395
      5 N          63.4873   82.7241   13.5711 N.ar    1  UNL1       -0.2060
      6 N          63.5606   81.2453   13.3308 N.ar    1  UNL1       -0.1408
      7 C          63.0625   80.9763   11.9418 C.ar    1  UNL1        0.2213
      8 N          62.6812   82.2887   11.3237 N.ar    1  UNL1       -0.2033
      9 C          62.9437   83.3690   12.3307 C.ar    1  UNL1        0.1702
     10 O          62.7707   85.1312    9.6948 O.2     1  UNL1       -0.2697
     11 C          62.2146   85.5014   11.0379 C.2     1  UNL1        0.2536
     12 N          61.1150   86.5164   11.1405 N.am    1  UNL1       -0.2657
     13 H          60.7500   86.7594   12.0220 H       1  UNL1        0.1566
     14 C          60.5715   87.1613    9.9000 C.ar    1  UNL1        0.1345
     15 C          60.6825   88.6458    9.7162 C.ar    1  UNL1        0.0368
     16 C          60.1391   89.2907    8.4757 C.ar    1  UNL1        0.0341
     17 C          59.4846   88.4511    7.4190 C.ar    1  UNL1        0.1593
     18 F          58.9412   89.0959    6.1786 F       1  UNL1       -0.2025
     19 C          59.3736   86.9665    7.6029 C.ar    1  UNL1        0.1298
     20 N          59.9170   86.3216    8.8433 N.ar    1  UNL1       -0.2267
     21 O          64.0174   85.8971   15.8952 O.3     1  UNL1       -0.4488
     22 C          63.8848   87.3895   15.8235 C.ar    1  UNL1        0.1835
     23 C          64.5061   88.1440   14.6857 C.ar    1  UNL1        0.1396
     24 N          64.3735   89.6364   14.6140 N.ar    1  UNL1       -0.2192
     25 C          63.6194   90.3744   15.6802 C.ar    1  UNL1        0.1991
     26 N          62.9980   89.6199   16.8180 N.ar    1  UNL1       -0.2192
     27 C          63.1307   88.1275   16.8897 C.ar    1  UNL1        0.1396
@<TRIPOS>BOND
     1    10    11    2
     2    11    12   am
     3    12    14    1
     4    14    15   ar
     5    15    16   ar
     6    16    17   ar
     7    17    18    1
     8    17    19   ar
     9    19    20   ar
    10    11     1    1
    11     1     2   ar
    12     2     3   ar
    13     3    21    1
    14    21    22    1
    15    22    23   ar
    16    23    24   ar
    17    24    25   ar
    18    25    26   ar
    19    26    27   ar
    20     3     4   ar
    21     4     5   ar
    22     5     6   ar
    23     6     7   ar
    24     7     8   ar
    25     8     9   ar
    26    20    14   ar
    27     9     1   ar
    28    27    22   ar
    29     9     5   ar
    30    12    13    1
@<TRIPOS>MOLECULE
*****
 27 30 0 0 0
SMALL
GASTEIGER

@<TRIPOS>ATOM
      1 C          63.3097   88.7495   12.6441 C.ar    1  UNL1        0.0926
      2 C          64.2712   89.8213   13.0644 C.ar    1  UNL1        0.0467
      3 C          64.0919   91.2258   12.5697 C.ar    1  UNL1        0.1648
      4 C          62.9509   91.5588   11.6545 C.ar    1  UNL1        0.1395
      5 N          61.9893   90.4871   11.2342 N.ar    1  UNL1       -0.2060
      6 N          60.7794   90.5155   10.3481 N.ar    1  UNL1       -0.1408
      7 C          60.2110   89.1284   10.2952 C.ar    1  UNL1        0.2213
      8 N          61.0696   88.2427   11.1486 N.ar    1  UNL1       -0.2033
      9 C          62.1687   89.0824   11.7290 C.ar    1  UNL1        0.1702
     10 O          64.2541   87.0869   14.4031 O.2     1  UNL1       -0.2697
     11 C          63.4890   87.3449   13.1388 C.2     1  UNL1        0.2536
     12 N          62.9034   86.1981   12.3694 N.am    1  UNL1       -0.2657
     13 H          62.4012   86.3674   11.5397 H       1  UNL1        0.1566
     14 C          63.0828   84.7935   12.8643 C.ar    1  UNL1        0.1345
     15 C          63.9200   83.8245   12.0833 C.ar    1  UNL1        0.0368
     16 C          64.0995   82.4198   12.5781 C.ar    1  UNL1        0.0341
     17 C          63.4418   81.9842   13.8538 C.ar    1  UNL1        0.1593
     18 F          63.6212   80.5797   14.3486 F       1  UNL1       -0.2025
     19 C          62.6045   82.9534   14.6348 C.ar    1  UNL1        0.1298
     20 N          62.4251   84.3579   14.1401 N.ar    1  UNL1       -0.2267
     21 O          65.0536   92.2977   12.9900 O.3     1  UNL1       -0.4488
     22 C          65.8173   93.0683   11.9543 C.ar    1  UNL1        0.1835
     23 C          66.0917   94.5290   12.1573 C.ar    1  UNL1        0.1396
     24 N          66.8554   95.2997   11.1215 N.ar    1  UNL1       -0.2192
     25 C          67.3447   94.6097    9.8827 C.ar    1  UNL1        0.1991
     26 N          67.0702   93.1491    9.6797 N.ar    1  UNL1       -0.2192
     27 C          66.3065   92.3784   10.7155 C.ar    1  UNL1        0.1396
@<TRIPOS>BOND
     1    10    11    2
     2    11    12   am
     3    12    14    1
     4    14    15   ar
     5    15    16   ar
     6    16    17   ar
     7    17    18    1
     8    17    19   ar
     9    19    20   ar
    10    11     1    1
    11     1     2   ar
    12     2     3   ar
    13     3    21    1
    14    21    22    1
    15    22    23   ar
    16    23    24   ar
    17    24    25   ar
    18    25    26   ar
    19    26    27   ar
    20     3     4   ar
    21     4     5   ar
    22     5     6   ar
    23     6     7   ar
    24     7     8   ar
    25     8     9   ar
    26    20    14   ar
    27     9     1   ar
    28    27    22   ar
    29     9     5   ar
    30    12    13    1
@<TRIPOS>MOLECULE
*****
 27 30 0 0 0
SMALL
GASTEIGER

@<TRIPOS>ATOM
      1 C          61.8427   87.2368   10.3824 C.ar    1  UNL1        0.0926
      2 C          62.3833   88.4975   10.9895 C.ar    1  UNL1        0.0467
      3 C          61.8772   89.8307   10.5246 C.ar    1  UNL1        0.1648
      4 C          60.8304   89.9034    9.4526 C.ar    1  UNL1        0.1395
      5 N          60.2899   88.6428    8.8455 N.ar    1  UNL1       -0.2060
      6 N          59.2619   88.4025    7.7799 N.ar    1  UNL1       -0.1408
      7 C          59.1327   86.9207    7.5863 C.ar    1  UNL1        0.2213
      8 N          60.0809   86.2452    8.5321 N.ar    1  UNL1       -0.2033
      9 C          60.7960   87.3095    9.3104 C.ar    1  UNL1        0.1702
     10 O          63.0390   84.9853    9.8825 O.2     1  UNL1       -0.2697
     11 C          62.3489   85.9035   10.8473 C.2     1  UNL1        0.2536
     12 N          62.1650   85.4884   12.2769 N.am    1  UNL1       -0.2657
     13 H          61.7121   86.0910   12.9101 H       1  UNL1        0.1566
     14 C          62.6712   84.1551   12.7417 C.ar    1  UNL1        0.1345
     15 C          62.4665   82.9370   11.8907 C.ar    1  UNL1        0.0368
     16 C          62.9726   81.6036   12.3554 C.ar    1  UNL1        0.0341
     17 C          63.6835   81.4884   13.6712 C.ar    1  UNL1        0.1593
     18 F          64.1897   80.1551   14.1359 F       1  UNL1       -0.2025
     19 C          63.8882   82.7065   14.5222 C.ar    1  UNL1        0.1298
     20 N          63.3821   84.0398   14.0575 N.ar    1  UNL1       -0.2267
     21 O          62.4178   91.0914   11.1317 O.3     1  UNL1       -0.4488
     22 C          63.4102   91.0178   12.2541 C.ar    1  UNL1        0.1835
     23 C          64.7021   91.7746   12.1639 C.ar    1  UNL1        0.1396
     24 N          65.6944   91.7010   13.2863 N.ar    1  UNL1       -0.2192
     25 C          65.3949   90.8705   14.4989 C.ar    1  UNL1        0.1991
     26 N          64.1030   90.1136   14.5892 N.ar    1  UNL1       -0.2192
     27 C          63.1106   90.1873   13.4668 C.ar    1  UNL1        0.1396
@<TRIPOS>BOND
     1    10    11    2
     2    11    12   am
     3    12    14    1
     4    14    15   ar
     5    15    16   ar
     6    16    17   ar
     7    17    18    1
     8    17    19   ar
     9    19    20   ar
    10    11     1    1
    11     1     2   ar
    12     2     3   ar
    13     3    21    1
    14    21    22    1
    15    22    23   ar
    16    23    24   ar
    17    24    25   ar
    18    25    26   ar
    19    26    27   ar
    20     3     4   ar
    21     4     5   ar
    22     5     6   ar
    23     6     7   ar
    24     7     8   ar
    25     8     9   ar
    26    20    14   ar
    27     9     1   ar
    28    27    22   ar
    29     9     5   ar
    30    12    13    1
@<TRIPOS>MOLECULE
*****
 27 30 0 0 0
SMALL
GASTEIGER

@<TRIPOS>ATOM
      1 C          63.5018   90.3980   12.6729 C.ar    1  UNL1        0.0926
      2 C          63.2429   89.7237   13.9875 C.ar    1  UNL1        0.0467
      3 C          63.9446   90.1987   15.2251 C.ar    1  UNL1        0.1648
      4 C          64.9053   91.3481   15.1482 C.ar    1  UNL1        0.1395
      5 N          65.1643   92.0225   13.8336 N.ar    1  UNL1       -0.2060
      6 N          66.0508   93.1707   13.4520 N.ar    1  UNL1       -0.1408
      7 C          65.8970   93.4052   11.9785 C.ar    1  UNL1        0.2213
      8 N          64.9153   92.4020   11.4494 N.ar    1  UNL1       -0.2033
      9 C          64.4625   91.5474   12.5959 C.ar    1  UNL1        0.1702
     10 O          63.0692   90.5884   10.1181 O.2     1  UNL1       -0.2697
     11 C          62.8000   89.9229   11.4352 C.2     1  UNL1        0.2536
     12 N          61.8290   88.7823   11.5146 N.am    1  UNL1       -0.2657
     13 H          61.6523   88.3455   12.3790 H       1  UNL1        0.1566
     14 C          61.1273   88.3073   10.2769 C.ar    1  UNL1        0.1345
     15 C          61.1239   86.8480    9.9300 C.ar    1  UNL1        0.0368
     16 C          60.4222   86.3729    8.6923 C.ar    1  UNL1        0.0341
     17 C          59.7239   87.3571    7.8015 C.ar    1  UNL1        0.1593
     18 F          59.0222   86.8820    6.5638 F       1  UNL1       -0.2025
     19 C          59.7273   88.8165    8.1484 C.ar    1  UNL1        0.1298
     20 N          60.4290   89.2915    9.3860 N.ar    1  UNL1       -0.2267
     21 O          63.6856   89.5243   16.5398 O.3     1  UNL1       -0.4488
     22 C          63.3587   88.0610   16.5805 C.ar    1  UNL1        0.1835
     23 C          63.9203   87.1377   15.5402 C.ar    1  UNL1        0.1396
     24 N          63.5933   85.6744   15.5809 N.ar    1  UNL1       -0.2192
     25 C          62.7047   85.1342   16.6620 C.ar    1  UNL1        0.1991
     26 N          62.1431   86.0574   17.7023 N.ar    1  UNL1       -0.2192
     27 C          62.4701   87.5208   17.6615 C.ar    1  UNL1        0.1396
@<TRIPOS>BOND
     1    10    11    2
     2    11    12   am
     3    12    14    1
     4    14    15   ar
     5    15    16   ar
     6    16    17   ar
     7    17    18    1
     8    17    19   ar
     9    19    20   ar
    10    11     1    1
    11     1     2   ar
    12     2     3   ar
    13     3    21    1
    14    21    22    1
    15    22    23   ar
    16    23    24   ar
    17    24    25   ar
    18    25    26   ar
    19    26    27   ar
    20     3     4   ar
    21     4     5   ar
    22     5     6   ar
    23     6     7   ar
    24     7     8   ar
    25     8     9   ar
    26    20    14   ar
    27     9     1   ar
    28    27    22   ar
    29     9     5   ar
    30    12    13    1
@<TRIPOS>MOLECULE
*****
 27 30 0 0 0
SMALL
GASTEIGER

@<TRIPOS>ATOM
      1 C          63.1996   88.1809   12.5033 C.ar    1  UNL1        0.0926
      2 C          62.4082   88.4188   11.2515 C.ar    1  UNL1        0.0467
      3 C          62.2255   89.8146   10.7336 C.ar    1  UNL1        0.1648
      4 C          62.8343   90.9726   11.4675 C.ar    1  UNL1        0.1395
      5 N          63.6257   90.7346   12.7193 N.ar    1  UNL1       -0.2060
      6 N          64.3381   91.6712   13.6495 N.ar    1  UNL1       -0.1408
      7 C          64.9610   90.8541   14.7424 C.ar    1  UNL1        0.2213
      8 N          64.6336   89.4126   14.4876 N.ar    1  UNL1       -0.2033
      9 C          63.8084   89.3388   13.2372 C.ar    1  UNL1        0.1702
     10 O          64.1290   86.5516   14.3011 O.2     1  UNL1       -0.2697
     11 C          63.3822   86.7850   13.0213 C.2     1  UNL1        0.2536
     12 N          62.8180   85.6226   12.2594 N.am    1  UNL1       -0.2657
     13 H          62.3279   85.7757   11.4195 H       1  UNL1        0.1566
     14 C          63.0007   84.2267   12.7775 C.ar    1  UNL1        0.1345
     15 C          63.9072   83.2724   12.0580 C.ar    1  UNL1        0.0368
     16 C          64.0899   81.8766   12.5759 C.ar    1  UNL1        0.0341
     17 C          63.3662   81.4350   13.8133 C.ar    1  UNL1        0.1593
     18 F          63.5489   80.0393   14.3312 F       1  UNL1       -0.2025
     19 C          62.4596   82.3894   14.5327 C.ar    1  UNL1        0.1298
     20 N          62.2769   83.7851   14.0148 N.ar    1  UNL1       -0.2267
     21 O          61.4341   90.0525    9.4817 O.3     1  UNL1       -0.4488
     22 C          60.6366   88.9362    8.8750 C.ar    1  UNL1        0.1835
     23 C          60.9322   87.5140    9.2490 C.ar    1  UNL1        0.1396
     24 N          60.1348   86.3977    8.6423 N.ar    1  UNL1       -0.2192
     25 C          59.0418   86.7037    7.6617 C.ar    1  UNL1        0.1991
     26 N          58.7462   88.1259    7.2877 N.ar    1  UNL1       -0.2192
     27 C          59.5436   89.2422    7.8944 C.ar    1  UNL1        0.1396
@<TRIPOS>BOND
     1    10    11    2
     2    11    12   am
     3    12    14    1
     4    14    15   ar
     5    15    16   ar
     6    16    17   ar
     7    17    18    1
     8    17    19   ar
     9    19    20   ar
    10    11     1    1
    11     1     2   ar
    12     2     3   ar
    13     3    21    1
    14    21    22    1
    15    22    23   ar
    16    23    24   ar
    17    24    25   ar
    18    25    26   ar
    19    26    27   ar
    20     3     4   ar
    21     4     5   ar
    22     5     6   ar
    23     6     7   ar
    24     7     8   ar
    25     8     9   ar
    26    20    14   ar
    27     9     1   ar
    28    27    22   ar
    29     9     5   ar
    30    12    13    1
@<TRIPOS>MOLECULE
*****
 27 30 0 0 0
SMALL
GASTEIGER

@<TRIPOS>ATOM
      1 C          63.1066   86.5770   12.4682 C.ar    1  UNL1        0.0926
      2 C          63.3576   85.1733   12.9336 C.ar    1  UNL1        0.0467
      3 C          64.0982   84.9290   14.2148 C.ar    1  UNL1        0.1648
      4 C          64.5879   86.0885   15.0309 C.ar    1  UNL1        0.1395
      5 N          64.3369   87.4922   14.5655 N.ar    1  UNL1       -0.2060
      6 N          64.6969   88.8242   15.1540 N.ar    1  UNL1       -0.1408
      7 C          64.1787   89.8916   14.2364 C.ar    1  UNL1        0.2213
      8 N          63.4985   89.2194   13.0808 N.ar    1  UNL1       -0.2033
      9 C          63.5963   87.7365   13.2842 C.ar    1  UNL1        0.1702
     10 O          62.6211   85.9472    9.9948 O.2     1  UNL1       -0.2697
     11 C          62.3659   86.8213   11.1869 C.2     1  UNL1        0.2536
     12 N          61.3702   87.9395   11.0976 N.am    1  UNL1       -0.2657
     13 H          61.2027   88.5131   11.8800 H       1  UNL1        0.1566
     14 C          60.6295   88.1837    9.8163 C.ar    1  UNL1        0.1345
     15 C          60.6980   89.5283    9.1550 C.ar    1  UNL1        0.0368
     16 C          59.9574   89.7726    7.8737 C.ar    1  UNL1        0.0341
     17 C          59.1483   88.6722    7.2535 C.ar    1  UNL1        0.1593
     18 F          58.4078   88.9164    5.9723 F       1  UNL1       -0.2025
     19 C          59.0799   87.3275    7.9149 C.ar    1  UNL1        0.1298
     20 N          59.8205   87.0833    9.1961 N.ar    1  UNL1       -0.2267
     21 O          64.3492   83.5252   14.6802 O.3     1  UNL1       -0.4488
     22 C          63.4434   82.4149   14.2368 C.ar    1  UNL1        0.1835
     23 C          62.0319   82.3521   14.7404 C.ar    1  UNL1        0.1396
     24 N          61.1260   81.2417   14.2970 N.ar    1  UNL1       -0.2192
     25 C          61.6317   80.1941   13.3499 C.ar    1  UNL1        0.1991
     26 N          63.0433   80.2570   12.8463 N.ar    1  UNL1       -0.2192
     27 C          63.9491   81.3673   13.2897 C.ar    1  UNL1        0.1396
@<TRIPOS>BOND
     1    10    11    2
     2    11    12   am
     3    12    14    1
     4    14    15   ar
     5    15    16   ar
     6    16    17   ar
     7    17    18    1
     8    17    19   ar
     9    19    20   ar
    10    11     1    1
    11     1     2   ar
    12     2     3   ar
    13     3    21    1
    14    21    22    1
    15    22    23   ar
    16    23    24   ar
    17    24    25   ar
    18    25    26   ar
    19    26    27   ar
    20     3     4   ar
    21     4     5   ar
    22     5     6   ar
    23     6     7   ar
    24     7     8   ar
    25     8     9   ar
    26    20    14   ar
    27     9     1   ar
    28    27    22   ar
    29     9     5   ar
    30    12    13    1
