@<TRIPOS>MOLECULE
*****
 30 33 0 0 0
SMALL
GASTEIGER

@<TRIPOS>ATOM
      1 O          62.4289   87.2461   11.2124 O.3     1  UNL1       -0.3822
      2 C          61.6542   86.8735    9.9831 C.3     1  UNL1        0.1149
      3 C          61.1108   86.0455    8.8566 C.3     1  UNL1        0.0486
      4 C          60.1703   86.6581    7.8614 C.3     1  UNL1        0.0714
      5 N          59.7733   88.0986    7.9929 N.3     1  UNL1       -0.2970
      6 C          60.3167   88.9266    9.1194 C.3     1  UNL1        0.0773
      7 C          61.2571   88.3140   10.1146 C.3     1  UNL1        0.0878
      8 H          62.9250   86.4747   11.5281 H       1  UNL1        0.2107
      9 H          58.7570   88.1174    8.0772 H       1  UNL1        0.1233
     10 C          62.3203   85.5623   10.2786 C.ar    1  UNL1        0.0045
     11 C          63.1578   84.8933    9.2294 C.ar    1  UNL1        0.0004
     12 C          63.8239   83.5823    9.5249 C.ar    1  UNL1        0.0317
     13 C          63.6525   82.9402   10.8697 C.ar    1  UNL1        0.1674
     14 F          64.3187   81.6291   11.1652 F       1  UNL1       -0.2018
     15 C          62.8150   83.6093   11.9190 C.ar    1  UNL1        0.1671
     16 F          62.6436   82.9672   13.2637 F       1  UNL1       -0.2018
     17 C          62.1489   84.9203   11.6234 C.ar    1  UNL1        0.0299
     18 C          61.8005   89.1419   11.2412 C.ar    1  UNL1        0.1043
     19 C          63.1481   89.7995   11.2819 C.ar    1  UNL1        0.0583
     20 C          63.2721   90.5215   12.5908 C.ar    1  UNL1        0.1782
     21 O          62.0012   90.3103   13.3591 O.2     1  UNL1       -0.3537
     22 N          61.0917   89.4576   12.5249 N.ar    1  UNL1       -0.0812
     23 C          64.4588   91.3155   13.0507 C.ar    1  UNL1        0.0583
     24 C          65.1392   92.2622   12.1068 C.ar    1  UNL1        0.0615
     25 CL         64.6330   92.4149   10.7031 Cl      1  UNL1       -0.0821
     26 C          66.3259   93.0562   12.5667 C.ar    1  UNL1        0.0115
     27 C          66.8320   92.9035   13.9705 C.ar    1  UNL1        0.0017
     28 C          66.1516   91.9569   14.9143 C.ar    1  UNL1        0.0115
     29 C          64.9650   91.1629   14.4544 C.ar    1  UNL1        0.0615
     30 CL         64.2845   90.2162   15.3983 Cl      1  UNL1       -0.0821
@<TRIPOS>BOND
     1     2     1    1
     2     2    10    1
     3    10    11   ar
     4    11    12   ar
     5    12    13   ar
     6    13    14    1
     7    13    15   ar
     8    15    16    1
     9    15    17   ar
    10     2     3    1
    11     3     4    1
    12     4     5    1
    13     5     6    1
    14     6     7    1
    15     7    18    1
    16    18    19   ar
    17    19    20   ar
    18    20    23    1
    19    23    24   ar
    20    24    25    1
    21    24    26   ar
    22    26    27   ar
    23    27    28   ar
    24    28    29   ar
    25    29    30    1
    26    20    21   ar
    27    21    22   ar
    28     7     2    1
    29    22    18   ar
    30    17    10   ar
    31    29    23   ar
    32     1     8    1
    33     5     9    1
@<TRIPOS>MOLECULE
*****
 30 33 0 0 0
SMALL
GASTEIGER

@<TRIPOS>ATOM
      1 O          62.4348   87.2515   11.2087 O.3     1  UNL1       -0.3822
      2 C          61.6569   86.8819    9.9806 C.3     1  UNL1        0.1149
      3 C          61.1101   86.0565    8.8538 C.3     1  UNL1        0.0486
      4 C          60.1681   86.6718    7.8619 C.3     1  UNL1        0.0714
      5 N          59.7729   88.1125    7.9967 N.3     1  UNL1       -0.2970
      6 C          60.3197   88.9379    9.1234 C.3     1  UNL1        0.0773
      7 C          61.2617   88.3226   10.1154 C.3     1  UNL1        0.0878
      8 H          62.9308   86.4790   11.5220 H       1  UNL1        0.2107
      9 H          58.7568   88.1323    8.0834 H       1  UNL1        0.1233
     10 C          62.3222   85.5695   10.2723 C.ar    1  UNL1        0.0045
     11 C          63.1528   84.8991    9.2185 C.ar    1  UNL1        0.0004
     12 C          63.8181   83.5868    9.5103 C.ar    1  UNL1        0.0317
     13 C          63.6528   82.9449   10.8559 C.ar    1  UNL1        0.1674
     14 F          64.3182   81.6325   11.1476 F       1  UNL1       -0.2018
     15 C          62.8223   83.6153   11.9097 C.ar    1  UNL1        0.1671
     16 F          62.6570   82.9734   13.2553 F       1  UNL1       -0.2018
     17 C          62.1570   84.9276   11.6179 C.ar    1  UNL1        0.0299
     18 C          61.8086   89.1480   11.2423 C.ar    1  UNL1        0.1043
     19 C          63.1561   89.8059   11.2802 C.ar    1  UNL1        0.0583
     20 C          63.2842   90.5248   12.5904 C.ar    1  UNL1        0.1782
     21 O          62.0159   90.3113   13.3623 O.2     1  UNL1       -0.3537
     22 N          61.1039   89.4603   12.5291 N.ar    1  UNL1       -0.0812
     23 C          64.4721   91.3180   13.0483 C.ar    1  UNL1        0.0583
     24 C          64.9796   91.1659   14.4517 C.ar    1  UNL1        0.0615
     25 CL         64.2993   90.2207   15.3970 Cl      1  UNL1       -0.0821
     26 C          66.1676   91.9592   14.9097 C.ar    1  UNL1        0.0115
     27 C          66.8479   92.9044   13.9643 C.ar    1  UNL1        0.0017
     28 C          66.3403   93.0564   12.5610 C.ar    1  UNL1        0.0115
     29 C          65.1524   92.2633   12.1031 C.ar    1  UNL1        0.0615
     30 CL         64.6448   92.4153   10.6997 Cl      1  UNL1       -0.0821
@<TRIPOS>BOND
     1     2     1    1
     2     2    10    1
     3    10    11   ar
     4    11    12   ar
     5    12    13   ar
     6    13    14    1
     7    13    15   ar
     8    15    16    1
     9    15    17   ar
    10     2     3    1
    11     3     4    1
    12     4     5    1
    13     5     6    1
    14     6     7    1
    15     7    18    1
    16    18    19   ar
    17    19    20   ar
    18    20    23    1
    19    23    24   ar
    20    24    25    1
    21    24    26   ar
    22    26    27   ar
    23    27    28   ar
    24    28    29   ar
    25    29    30    1
    26    20    21   ar
    27    21    22   ar
    28     7     2    1
    29    22    18   ar
    30    17    10   ar
    31    29    23   ar
    32     1     8    1
    33     5     9    1
@<TRIPOS>MOLECULE
*****
 30 33 0 0 0
SMALL
GASTEIGER

@<TRIPOS>ATOM
      1 O          63.4253   88.4584   12.3027 O.3     1  UNL1       -0.3822
      2 C          62.5235   89.3145   11.4636 C.3     1  UNL1        0.1149
      3 C          61.9604   90.5304   10.7896 C.3     1  UNL1        0.0486
      4 C          60.7356   90.4127    9.9315 C.3     1  UNL1        0.0714
      5 N          60.0741   89.0791    9.7475 N.3     1  UNL1       -0.2970
      6 C          60.6373   87.8632   10.4215 C.3     1  UNL1        0.0773
      7 C          61.8620   87.9808   11.2796 C.3     1  UNL1        0.0878
      8 H          64.1261   89.0075   12.6877 H       1  UNL1        0.2107
      9 H          60.0731   88.8866    8.7459 H       1  UNL1        0.1233
     10 C          63.4983   90.3508   11.9390 C.ar    1  UNL1        0.0045
     11 C          63.9947   91.4035   10.9928 C.ar    1  UNL1        0.0004
     12 C          64.9694   92.4398   11.4683 C.ar    1  UNL1        0.0317
     13 C          65.4476   92.4234   12.8900 C.ar    1  UNL1        0.1674
     14 F          66.4223   93.4597   13.3654 F       1  UNL1       -0.2018
     15 C          64.9511   91.3707   13.8361 C.ar    1  UNL1        0.1671
     16 F          65.4293   91.3542   15.2578 F       1  UNL1       -0.2018
     17 C          63.9765   90.3344   13.3606 C.ar    1  UNL1        0.0299
     18 C          62.4253   86.7650   11.9536 C.ar    1  UNL1        0.1043
     19 C          62.0490   85.3421   11.6637 C.ar    1  UNL1        0.0583
     20 C          62.8549   84.4564   12.5669 C.ar    1  UNL1        0.1782
     21 O          63.7293   85.3316   13.4150 O.2     1  UNL1       -0.3537
     22 N          63.4638   86.7584   13.0360 N.ar    1  UNL1       -0.0812
     23 C          62.7967   82.9582   12.6137 C.ar    1  UNL1        0.0583
     24 C          63.2190   82.1536   11.4202 C.ar    1  UNL1        0.0615
     25 CL         63.6994   82.8471   10.1800 Cl      1  UNL1       -0.0821
     26 C          63.1607   80.6554   11.4671 C.ar    1  UNL1        0.0115
     27 C          62.6803   79.9619   12.7074 C.ar    1  UNL1        0.0017
     28 C          62.2581   80.7665   13.9007 C.ar    1  UNL1        0.0115
     29 C          62.3163   82.2646   13.8539 C.ar    1  UNL1        0.0615
     30 CL         61.8941   83.0693   15.0474 Cl      1  UNL1       -0.0821
@<TRIPOS>BOND
     1     2     1    1
     2     2    10    1
     3    10    11   ar
     4    11    12   ar
     5    12    13   ar
     6    13    14    1
     7    13    15   ar
     8    15    16    1
     9    15    17   ar
    10     2     3    1
    11     3     4    1
    12     4     5    1
    13     5     6    1
    14     6     7    1
    15     7    18    1
    16    18    19   ar
    17    19    20   ar
    18    20    23    1
    19    23    24   ar
    20    24    25    1
    21    24    26   ar
    22    26    27   ar
    23    27    28   ar
    24    28    29   ar
    25    29    30    1
    26    20    21   ar
    27    21    22   ar
    28     7     2    1
    29    22    18   ar
    30    17    10   ar
    31    29    23   ar
    32     1     8    1
    33     5     9    1
@<TRIPOS>MOLECULE
*****
 30 33 0 0 0
SMALL
GASTEIGER

@<TRIPOS>ATOM
      1 O          63.4271   88.4593   12.3016 O.3     1  UNL1       -0.3822
      2 C          62.5248   89.3173   11.4651 C.3     1  UNL1        0.1149
      3 C          61.9618   90.5347   10.7936 C.3     1  UNL1        0.0486
      4 C          60.7354   90.4195    9.9377 C.3     1  UNL1        0.0714
      5 N          60.0719   89.0868    9.7535 N.3     1  UNL1       -0.2970
      6 C          60.6348   87.8695   10.4250 C.3     1  UNL1        0.0773
      7 C          61.8613   87.9847   11.2809 C.3     1  UNL1        0.0878
      8 H          64.1293   89.0071   12.6859 H       1  UNL1        0.2107
      9 H          60.0687   88.8955    8.7516 H       1  UNL1        0.1233
     10 C          63.5017   90.3520   11.9399 C.ar    1  UNL1        0.0045
     11 C          63.9967   91.4059   10.9943 C.ar    1  UNL1        0.0004
     12 C          64.9736   92.4404   11.4691 C.ar    1  UNL1        0.0317
     13 C          65.4553   92.4210   12.8895 C.ar    1  UNL1        0.1674
     14 F          66.4322   93.4557   13.3643 F       1  UNL1       -0.2018
     15 C          64.9603   91.3672   13.8351 C.ar    1  UNL1        0.1671
     16 F          65.4421   91.3478   15.2555 F       1  UNL1       -0.2018
     17 C          63.9835   90.3326   13.3603 C.ar    1  UNL1        0.0299
     18 C          62.4244   86.7674   11.9525 C.ar    1  UNL1        0.1043
     19 C          62.0477   85.3452   11.6600 C.ar    1  UNL1        0.0583
     20 C          62.8535   84.4575   12.5613 C.ar    1  UNL1        0.1782
     21 O          63.7283   85.3309   13.4110 O.2     1  UNL1       -0.3537
     22 N          63.4631   86.7585   13.0347 N.ar    1  UNL1       -0.0812
     23 C          62.7949   82.9593   12.6053 C.ar    1  UNL1        0.0583
     24 C          62.3127   82.2636   13.8437 C.ar    1  UNL1        0.0615
     25 CL         61.8892   83.0662   15.0381 Cl      1  UNL1       -0.0821
     26 C          62.2541   80.7654   13.8877 C.ar    1  UNL1        0.0115
     27 C          62.6776   79.9628   12.6933 C.ar    1  UNL1        0.0017
     28 C          63.1597   80.6585   11.4550 C.ar    1  UNL1        0.0115
     29 C          63.2184   82.1567   11.4110 C.ar    1  UNL1        0.0615
     30 CL         63.7005   82.8524   10.1725 Cl      1  UNL1       -0.0821
@<TRIPOS>BOND
     1     2     1    1
     2     2    10    1
     3    10    11   ar
     4    11    12   ar
     5    12    13   ar
     6    13    14    1
     7    13    15   ar
     8    15    16    1
     9    15    17   ar
    10     2     3    1
    11     3     4    1
    12     4     5    1
    13     5     6    1
    14     6     7    1
    15     7    18    1
    16    18    19   ar
    17    19    20   ar
    18    20    23    1
    19    23    24   ar
    20    24    25    1
    21    24    26   ar
    22    26    27   ar
    23    27    28   ar
    24    28    29   ar
    25    29    30    1
    26    20    21   ar
    27    21    22   ar
    28     7     2    1
    29    22    18   ar
    30    17    10   ar
    31    29    23   ar
    32     1     8    1
    33     5     9    1
@<TRIPOS>MOLECULE
*****
 30 33 0 0 0
SMALL
GASTEIGER

@<TRIPOS>ATOM
      1 O          62.7924   87.4986   10.5989 O.3     1  UNL1       -0.3822
      2 C          61.8149   88.4068    9.9134 C.3     1  UNL1        0.1149
      3 C          61.1093   89.6648    9.5020 C.3     1  UNL1        0.0486
      4 C          59.9605   89.6000    8.5397 C.3     1  UNL1        0.0714
      5 N          59.5175   88.2770    7.9887 N.3     1  UNL1       -0.2970
      6 C          60.2231   87.0190    8.4001 C.3     1  UNL1        0.0773
      7 C          61.3719   87.0838    9.3624 C.3     1  UNL1        0.0878
      8 H          63.3825   88.0242   11.1614 H       1  UNL1        0.2107
      9 H          59.5954   88.3398    6.9736 H       1  UNL1        0.1233
     10 C          62.5975   89.4143   10.7025 C.ar    1  UNL1        0.0045
     11 C          62.9943   90.7163   10.0722 C.ar    1  UNL1        0.0004
     12 C          63.7768   91.7238   10.8613 C.ar    1  UNL1        0.0317
     13 C          64.1626   91.4292   12.2806 C.ar    1  UNL1        0.1674
     14 F          64.9451   92.4367   13.0696 F       1  UNL1       -0.2018
     15 C          63.7658   90.1272   12.9108 C.ar    1  UNL1        0.1671
     16 F          64.1516   89.8326   14.3301 F       1  UNL1       -0.2018
     17 C          62.9833   89.1197   12.1218 C.ar    1  UNL1        0.0299
     18 C          62.0776   85.8258    9.7739 C.ar    1  UNL1        0.1043
     19 C          61.7700   84.9985   10.9867 C.ar    1  UNL1        0.0583
     20 C          62.7172   83.8357   11.0070 C.ar    1  UNL1        0.1782
     21 O          63.6103   83.9441    9.8068 O.2     1  UNL1       -0.3537
     22 N          63.2150   85.1741    9.0446 N.ar    1  UNL1       -0.0812
     23 C          62.7632   82.7541   12.0454 C.ar    1  UNL1        0.0583
     24 C          62.7008   83.1092   13.5015 C.ar    1  UNL1        0.0615
     25 CL         62.5923   84.5457   13.9191 Cl      1  UNL1       -0.0821
     26 C          62.7468   82.0276   14.5398 C.ar    1  UNL1        0.0115
     27 C          62.8553   80.5910   14.1220 C.ar    1  UNL1        0.0017
     28 C          62.9177   80.2360   12.6660 C.ar    1  UNL1        0.0115
     29 C          62.8716   81.3175   11.6277 C.ar    1  UNL1        0.0615
     30 CL         62.9340   80.9625   10.1716 Cl      1  UNL1       -0.0821
@<TRIPOS>BOND
     1     2     1    1
     2     2    10    1
     3    10    11   ar
     4    11    12   ar
     5    12    13   ar
     6    13    14    1
     7    13    15   ar
     8    15    16    1
     9    15    17   ar
    10     2     3    1
    11     3     4    1
    12     4     5    1
    13     5     6    1
    14     6     7    1
    15     7    18    1
    16    18    19   ar
    17    19    20   ar
    18    20    23    1
    19    23    24   ar
    20    24    25    1
    21    24    26   ar
    22    26    27   ar
    23    27    28   ar
    24    28    29   ar
    25    29    30    1
    26    20    21   ar
    27    21    22   ar
    28     7     2    1
    29    22    18   ar
    30    17    10   ar
    31    29    23   ar
    32     1     8    1
    33     5     9    1
@<TRIPOS>MOLECULE
*****
 30 33 0 0 0
SMALL
GASTEIGER

@<TRIPOS>ATOM
      1 O          62.7486   88.2499   11.8014 O.3     1  UNL1       -0.3822
      2 C          61.7746   88.3518   10.6652 C.3     1  UNL1        0.1149
      3 C          60.9671   87.9646    9.4619 C.3     1  UNL1        0.0486
      4 C          60.0185   88.9502    8.8464 C.3     1  UNL1        0.0714
      5 N          59.8774   90.3230    9.4343 N.3     1  UNL1       -0.2970
      6 C          60.6849   90.7102   10.6376 C.3     1  UNL1        0.0773
      7 C          61.6335   89.7246   11.2531 C.3     1  UNL1        0.0878
      8 H          63.1506   87.3672   11.8045 H       1  UNL1        0.2107
      9 H          58.8963   90.4345    9.6899 H       1  UNL1        0.1233
     10 C          62.2540   86.9436   10.4719 C.ar    1  UNL1        0.0045
     11 C          62.4883   86.0611   11.6619 C.ar    1  UNL1        0.0004
     12 C          62.9676   84.6530   11.4686 C.ar    1  UNL1        0.0317
     13 C          63.2127   84.1274   10.0852 C.ar    1  UNL1        0.1674
     14 F          63.6921   82.7192    9.8919 F       1  UNL1       -0.2018
     15 C          62.9784   85.0099    8.8952 C.ar    1  UNL1        0.1671
     16 F          63.2235   84.4844    7.5118 F       1  UNL1       -0.2018
     17 C          62.4991   86.4180    9.0885 C.ar    1  UNL1        0.0299
     18 C          62.4411   90.1117   12.4564 C.ar    1  UNL1        0.1043
     19 C          63.7130   90.9068   12.4462 C.ar    1  UNL1        0.0583
     20 C          64.1764   91.0581   13.8647 C.ar    1  UNL1        0.1782
     21 O          63.1910   90.3565   14.7517 O.2     1  UNL1       -0.3537
     22 N          62.1185   89.7716   13.8813 N.ar    1  UNL1       -0.0812
     23 C          65.4089   91.7837   14.3170 C.ar    1  UNL1        0.0583
     24 C          66.4663   92.1586   13.3212 C.ar    1  UNL1        0.0615
     25 CL         66.2911   91.8080   11.8733 Cl      1  UNL1       -0.0821
     26 C          67.6988   92.8842   13.7734 C.ar    1  UNL1        0.0115
     27 C          67.8740   93.2347   15.2213 C.ar    1  UNL1        0.0017
     28 C          66.8166   92.8598   16.2170 C.ar    1  UNL1        0.0115
     29 C          65.5841   92.1343   15.7648 C.ar    1  UNL1        0.0615
     30 CL         64.5267   91.7593   16.7605 Cl      1  UNL1       -0.0821
@<TRIPOS>BOND
     1     2     1    1
     2     2    10    1
     3    10    11   ar
     4    11    12   ar
     5    12    13   ar
     6    13    14    1
     7    13    15   ar
     8    15    16    1
     9    15    17   ar
    10     2     3    1
    11     3     4    1
    12     4     5    1
    13     5     6    1
    14     6     7    1
    15     7    18    1
    16    18    19   ar
    17    19    20   ar
    18    20    23    1
    19    23    24   ar
    20    24    25    1
    21    24    26   ar
    22    26    27   ar
    23    27    28   ar
    24    28    29   ar
    25    29    30    1
    26    20    21   ar
    27    21    22   ar
    28     7     2    1
    29    22    18   ar
    30    17    10   ar
    31    29    23   ar
    32     1     8    1
    33     5     9    1
@<TRIPOS>MOLECULE
*****
 30 33 0 0 0
SMALL
GASTEIGER

@<TRIPOS>ATOM
      1 O          62.8330   87.5172   10.6842 O.3     1  UNL1       -0.3822
      2 C          61.8733   88.4528   10.0108 C.3     1  UNL1        0.1149
      3 C          61.1872   89.7286    9.6215 C.3     1  UNL1        0.0486
      4 C          60.0465   89.6999    8.6479 C.3     1  UNL1        0.0714
      5 N          59.5917   88.3953    8.0637 N.3     1  UNL1       -0.2970
      6 C          60.2778   87.1195    8.4530 C.3     1  UNL1        0.0773
      7 C          61.4185   87.1482    9.4265 C.3     1  UNL1        0.0878
      8 H          63.4246   88.0226   11.2635 H       1  UNL1        0.2107
      9 H          59.6795   88.4797    7.0510 H       1  UNL1        0.1233
     10 C          62.6613   89.4325   10.8289 C.ar    1  UNL1        0.0045
     11 C          62.9190   89.1606   12.2814 C.ar    1  UNL1        0.0004
     12 C          63.7071   90.1402   13.0994 C.ar    1  UNL1        0.0317
     13 C          64.2374   91.3917   12.4651 C.ar    1  UNL1        0.1674
     14 F          65.0255   92.3713   13.2832 F       1  UNL1       -0.2018
     15 C          63.9798   91.6636   11.0126 C.ar    1  UNL1        0.1671
     16 F          64.5101   92.9151   10.3783 F       1  UNL1       -0.2018
     17 C          63.1917   90.6840   10.1946 C.ar    1  UNL1        0.0299
     18 C          62.1046   85.8724    9.8159 C.ar    1  UNL1        0.1043
     19 C          61.8040   85.0446   11.0302 C.ar    1  UNL1        0.0583
     20 C          62.7254   83.8611   11.0240 C.ar    1  UNL1        0.1782
     21 O          63.5956   83.9573    9.8060 O.2     1  UNL1       -0.3537
     22 N          63.2119   85.2004    9.0593 N.ar    1  UNL1       -0.0812
     23 C          62.7691   82.7723   12.0549 C.ar    1  UNL1        0.0583
     24 C          62.8776   81.3386   11.6274 C.ar    1  UNL1        0.0615
     25 CL         62.9423   80.9937   10.1691 Cl      1  UNL1       -0.0821
     26 C          62.9212   80.2499   12.6584 C.ar    1  UNL1        0.0115
     27 C          62.8564   80.5949   14.1167 C.ar    1  UNL1        0.0017
     28 C          62.7480   82.0286   14.5441 C.ar    1  UNL1        0.0115
     29 C          62.7043   83.1173   13.5133 C.ar    1  UNL1        0.0615
     30 CL         62.5959   84.5511   13.9407 Cl      1  UNL1       -0.0821
@<TRIPOS>BOND
     1     2     1    1
     2     2    10    1
     3    10    11   ar
     4    11    12   ar
     5    12    13   ar
     6    13    14    1
     7    13    15   ar
     8    15    16    1
     9    15    17   ar
    10     2     3    1
    11     3     4    1
    12     4     5    1
    13     5     6    1
    14     6     7    1
    15     7    18    1
    16    18    19   ar
    17    19    20   ar
    18    20    23    1
    19    23    24   ar
    20    24    25    1
    21    24    26   ar
    22    26    27   ar
    23    27    28   ar
    24    28    29   ar
    25    29    30    1
    26    20    21   ar
    27    21    22   ar
    28     7     2    1
    29    22    18   ar
    30    17    10   ar
    31    29    23   ar
    32     1     8    1
    33     5     9    1
@<TRIPOS>MOLECULE
*****
 30 33 0 0 0
SMALL
GASTEIGER

@<TRIPOS>ATOM
      1 O          65.1293   91.7580   12.2184 O.3     1  UNL1       -0.3822
      2 C          65.9080   92.5450   13.2305 C.3     1  UNL1        0.1149
      3 C          66.8638   93.5490   13.8034 C.3     1  UNL1        0.0486
      4 C          67.0391   93.6547   15.2894 C.3     1  UNL1        0.0714
      5 N          66.2586   92.7562   16.2024 N.3     1  UNL1       -0.2970
      6 C          65.3028   91.7522   15.6295 C.3     1  UNL1        0.0773
      7 C          65.1275   91.6466   14.1436 C.3     1  UNL1        0.0878
      8 H          65.3610   92.0600   11.3262 H       1  UNL1        0.2107
      9 H          65.7156   93.3619   16.8179 H       1  UNL1        0.1233
     10 C          66.4181   93.1701   11.9659 C.ar    1  UNL1        0.0045
     11 C          66.1971   94.6314   11.7095 C.ar    1  UNL1        0.0004
     12 C          66.7072   95.2564   10.4449 C.ar    1  UNL1        0.0317
     13 C          67.4383   94.4202    9.4369 C.ar    1  UNL1        0.1674
     14 F          67.9483   95.0453    8.1723 F       1  UNL1       -0.2018
     15 C          67.6593   92.9589    9.6933 C.ar    1  UNL1        0.1671
     16 F          68.3903   92.1227    8.6852 F       1  UNL1       -0.2018
     17 C          67.1492   92.3339   10.9578 C.ar    1  UNL1        0.0299
     18 C          64.1717   90.6425   13.5705 C.ar    1  UNL1        0.1043
     19 C          64.4405   89.1795   13.3773 C.ar    1  UNL1        0.0583
     20 C          63.2142   88.5582   12.7775 C.ar    1  UNL1        0.1782
     21 O          62.1873   89.6370   12.6000 O.2     1  UNL1       -0.3537
     22 N          62.7791   90.9253   13.0901 N.ar    1  UNL1       -0.0812
     23 C          63.0444   87.1117   12.4183 C.ar    1  UNL1        0.0583
     24 C          63.5391   86.0447   13.3494 C.ar    1  UNL1        0.0615
     25 CL         64.2035   86.4241   14.6396 Cl      1  UNL1       -0.0821
     26 C          63.3694   84.5982   12.9901 C.ar    1  UNL1        0.0115
     27 C          62.7050   84.2188   11.6999 C.ar    1  UNL1        0.0017
     28 C          62.2103   85.2858   10.7690 C.ar    1  UNL1        0.0115
     29 C          62.3800   86.7322   11.1281 C.ar    1  UNL1        0.0615
     30 CL         61.8854   87.7993   10.1971 Cl      1  UNL1       -0.0821
@<TRIPOS>BOND
     1     2     1    1
     2     2    10    1
     3    10    11   ar
     4    11    12   ar
     5    12    13   ar
     6    13    14    1
     7    13    15   ar
     8    15    16    1
     9    15    17   ar
    10     2     3    1
    11     3     4    1
    12     4     5    1
    13     5     6    1
    14     6     7    1
    15     7    18    1
    16    18    19   ar
    17    19    20   ar
    18    20    23    1
    19    23    24   ar
    20    24    25    1
    21    24    26   ar
    22    26    27   ar
    23    27    28   ar
    24    28    29   ar
    25    29    30    1
    26    20    21   ar
    27    21    22   ar
    28     7     2    1
    29    22    18   ar
    30    17    10   ar
    31    29    23   ar
    32     1     8    1
    33     5     9    1
@<TRIPOS>MOLECULE
*****
 30 33 0 0 0
SMALL
GASTEIGER

@<TRIPOS>ATOM
      1 O          62.9773   85.1148   12.6771 O.3     1  UNL1       -0.3822
      2 C          63.1800   83.8577   13.4701 C.3     1  UNL1        0.1149
      3 C          63.3865   82.9520   14.6478 C.3     1  UNL1        0.0486
      4 C          63.5114   81.4714   14.4424 C.3     1  UNL1        0.0714
      5 N          63.4298   80.8965   13.0593 N.3     1  UNL1       -0.2970
      6 C          63.2232   81.8022   11.8817 C.3     1  UNL1        0.0773
      7 C          63.0983   83.2829   12.0870 C.3     1  UNL1        0.0878
      8 H          62.9624   85.8767   13.2772 H       1  UNL1        0.2107
      9 H          62.6540   80.2342   13.0610 H       1  UNL1        0.1233
     10 C          63.1912   84.8692   14.5778 C.ar    1  UNL1        0.0045
     11 C          62.4872   84.5750   15.8692 C.ar    1  UNL1        0.0004
     12 C          62.4985   85.5865   16.9768 C.ar    1  UNL1        0.0317
     13 C          63.2138   86.8920   16.7930 C.ar    1  UNL1        0.1674
     14 F          63.2251   87.9035   17.9007 F       1  UNL1       -0.2018
     15 C          63.9179   87.1861   15.5017 C.ar    1  UNL1        0.1671
     16 F          64.6333   88.4917   15.3179 F       1  UNL1       -0.2018
     17 C          63.9066   86.1747   14.3941 C.ar    1  UNL1        0.0299
     18 C          62.8918   84.1887   10.9094 C.ar    1  UNL1        0.1043
     19 C          61.8580   85.2699   10.7993 C.ar    1  UNL1        0.0583
     20 C          62.0102   85.9217    9.4570 C.ar    1  UNL1        0.1782
     21 O          63.1380   85.2434    8.7374 O.2     1  UNL1       -0.3537
     22 N          63.6829   84.1723    9.6351 N.ar    1  UNL1       -0.0812
     23 C          61.1802   87.0533    8.9271 C.ar    1  UNL1        0.0583
     24 C          61.3349   88.4302    9.5020 C.ar    1  UNL1        0.0615
     25 CL         62.3196   88.6754   10.6066 Cl      1  UNL1       -0.0821
     26 C          60.5049   89.5617    8.9722 C.ar    1  UNL1        0.0115
     27 C          59.5202   89.3164    7.8676 C.ar    1  UNL1        0.0017
     28 C          59.3655   87.9397    7.2928 C.ar    1  UNL1        0.0115
     29 C          60.1954   86.8081    7.8225 C.ar    1  UNL1        0.0615
     30 CL         60.0407   85.4312    7.2477 Cl      1  UNL1       -0.0821
@<TRIPOS>BOND
     1     2     1    1
     2     2    10    1
     3    10    11   ar
     4    11    12   ar
     5    12    13   ar
     6    13    14    1
     7    13    15   ar
     8    15    16    1
     9    15    17   ar
    10     2     3    1
    11     3     4    1
    12     4     5    1
    13     5     6    1
    14     6     7    1
    15     7    18    1
    16    18    19   ar
    17    19    20   ar
    18    20    23    1
    19    23    24   ar
    20    24    25    1
    21    24    26   ar
    22    26    27   ar
    23    27    28   ar
    24    28    29   ar
    25    29    30    1
    26    20    21   ar
    27    21    22   ar
    28     7     2    1
    29    22    18   ar
    30    17    10   ar
    31    29    23   ar
    32     1     8    1
    33     5     9    1
