@<TRIPOS>MOLECULE
*****
 30 33 0 0 0
SMALL
GASTEIGER

@<TRIPOS>ATOM
      1 N          62.3911   86.0693   11.6757 N.pl3   1  UNL1       -0.2872
      2 N          64.2682   89.4427   13.9879 N.pl3   1  UNL1       -0.3062
      3 C          64.4333   88.0280   14.4583 C.3     1  UNL1        0.0925
      4 C          63.8076   86.9035   13.6875 C.3     1  UNL1        0.0415
      5 C          63.0168   87.1938   12.4464 C.3     1  UNL1        0.0807
      6 C          62.8517   88.6086   11.9760 C.3     1  UNL1        0.0415
      7 C          63.4774   89.7330   12.7468 C.3     1  UNL1        0.0925
      8 C          68.3125   92.5790   14.8867 C.3     1  UNL1        0.0327
      9 C          66.9161   92.1354   15.2080 C.ar    1  UNL1       -0.0015
     10 C          66.1454   92.8162   16.3000 C.ar    1  UNL1        0.0947
     11 N          64.7490   92.3726   16.6213 N.ar    1  UNL1       -0.2414
     12 C          64.1233   91.2481   15.8506 C.ar    1  UNL1        0.1133
     13 C          64.8940   90.5673   14.7586 C.ar    1  UNL1        0.0670
     14 C          66.2904   91.0109   14.4373 C.ar    1  UNL1        0.0134
     15 C          62.4996   84.6616   12.1819 C.ar    1  UNL1        0.0515
     16 C          62.2983   84.3711   13.6397 C.ar    1  UNL1        0.0148
     17 C          62.4068   82.9632   14.1459 C.ar    1  UNL1        0.0051
     18 C          62.7166   81.8459   13.1943 C.ar    1  UNL1        0.0715
     19 C          62.9179   82.1363   11.7365 C.ar    1  UNL1        0.0051
     20 C          62.8093   83.5441   11.2303 C.ar    1  UNL1        0.0148
     21 C          62.8251   80.4381   13.7005 C.3     1  UNL1        0.4186
     22 F          62.9337   79.0302   14.2068 F       1  UNL1       -0.1659
     23 F          61.3407   80.2736   13.5611 F       1  UNL1       -0.1659
     24 F          64.3095   80.6027   13.8400 F       1  UNL1       -0.1659
     25 C          61.6568   86.3527   10.3987 C.ar    1  UNL1        0.0710
     26 C          62.1580   85.7855    9.1037 C.ar    1  UNL1        0.0180
     27 C          61.4237   86.0688    7.8267 C.ar    1  UNL1        0.0220
     28 C          60.1884   86.9194    7.8448 C.ar    1  UNL1        0.0990
     29 N          59.6873   87.4866    9.1398 N.ar    1  UNL1       -0.2410
     30 C          60.4215   87.2033   10.4168 C.ar    1  UNL1        0.1136
@<TRIPOS>BOND
     1     8     9    1
     2     9    10   ar
     3    10    11   ar
     4    11    12   ar
     5    12    13   ar
     6    13     2    1
     7     2     3    1
     8     3     4    1
     9     4     5    1
    10     5     1    1
    11     1    15    1
    12    15    16   ar
    13    16    17   ar
    14    17    18   ar
    15    18    21    1
    16    21    22    1
    17    21    23    1
    18    21    24    1
    19    18    19   ar
    20    19    20   ar
    21     1    25    1
    22    25    26   ar
    23    26    27   ar
    24    27    28   ar
    25    28    29   ar
    26    29    30   ar
    27     5     6    1
    28     6     7    1
    29    13    14   ar
    30    14     9   ar
    31     7     2    1
    32    20    15   ar
    33    30    25   ar
@<TRIPOS>MOLECULE
*****
 30 33 0 0 0
SMALL
GASTEIGER

@<TRIPOS>ATOM
      1 N          62.0749   87.2724   10.6865 N.pl3   1  UNL1       -0.2872
      2 N          64.3879   90.7406   12.3812 N.pl3   1  UNL1       -0.3062
      3 C          64.1891   89.4999   13.2003 C.3     1  UNL1        0.0925
      4 C          63.4181   88.3437   12.6354 C.3     1  UNL1        0.0415
      5 C          62.8459   88.4285   11.2514 C.3     1  UNL1        0.0807
      6 C          63.0448   89.6693   10.4323 C.3     1  UNL1        0.0415
      7 C          63.8157   90.8253   10.9972 C.3     1  UNL1        0.0925
      8 C          67.0513   92.8937   16.2889 C.3     1  UNL1        0.0327
      9 C          66.4906   92.9732   14.8999 C.ar    1  UNL1       -0.0015
     10 C          66.7008   94.2088   14.0759 C.ar    1  UNL1        0.0947
     11 N          66.1401   94.2883   12.6869 N.ar    1  UNL1       -0.2414
     12 C          65.3691   93.1323   12.1220 C.ar    1  UNL1        0.1133
     13 C          65.1589   91.8967   12.9461 C.ar    1  UNL1        0.0670
     14 C          65.7196   91.8172   14.3350 C.ar    1  UNL1        0.0134
     15 C          62.3494   85.8796   11.1709 C.ar    1  UNL1        0.0515
     16 C          62.1018   85.5224   12.6065 C.ar    1  UNL1        0.0148
     17 C          62.3763   84.1295   13.0909 C.ar    1  UNL1        0.0051
     18 C          62.8983   83.0939   12.1397 C.ar    1  UNL1        0.0715
     19 C          63.1459   83.4511   10.7040 C.ar    1  UNL1        0.0051
     20 C          62.8714   84.8439   10.2196 C.ar    1  UNL1        0.0148
     21 C          63.1727   81.7011   12.6241 C.3     1  UNL1        0.4186
     22 F          63.4471   80.3082   13.1085 F       1  UNL1       -0.1659
     23 F          64.6465   81.9774   12.5837 F       1  UNL1       -0.1659
     24 F          61.6990   81.4248   12.6645 F       1  UNL1       -0.1659
     25 C          61.0295   87.5092    9.6372 C.ar    1  UNL1        0.0710
     26 C          60.4078   86.3465    8.9221 C.ar    1  UNL1        0.0180
     27 C          59.3624   86.5833    7.8727 C.ar    1  UNL1        0.0220
     28 C          58.9387   87.9828    7.5385 C.ar    1  UNL1        0.0990
     29 N          59.5604   89.1455    8.2536 N.ar    1  UNL1       -0.2410
     30 C          60.6059   88.9088    9.3030 C.ar    1  UNL1        0.1136
@<TRIPOS>BOND
     1     8     9    1
     2     9    10   ar
     3    10    11   ar
     4    11    12   ar
     5    12    13   ar
     6    13     2    1
     7     2     3    1
     8     3     4    1
     9     4     5    1
    10     5     1    1
    11     1    15    1
    12    15    16   ar
    13    16    17   ar
    14    17    18   ar
    15    18    21    1
    16    21    22    1
    17    21    23    1
    18    21    24    1
    19    18    19   ar
    20    19    20   ar
    21     1    25    1
    22    25    26   ar
    23    26    27   ar
    24    27    28   ar
    25    28    29   ar
    26    29    30   ar
    27     5     6    1
    28     6     7    1
    29    13    14   ar
    30    14     9   ar
    31     7     2    1
    32    20    15   ar
    33    30    25   ar
@<TRIPOS>MOLECULE
*****
 30 33 0 0 0
SMALL
GASTEIGER

@<TRIPOS>ATOM
      1 N          63.0852   84.9457   12.1979 N.pl3   1  UNL1       -0.2872
      2 N          64.1551   88.8152   14.2306 N.pl3   1  UNL1       -0.3062
      3 C          63.4696   88.8334   12.8966 C.3     1  UNL1        0.0925
      4 C          63.1130   87.5435   12.2190 C.3     1  UNL1        0.0415
      5 C          63.4418   86.2355   12.8754 C.3     1  UNL1        0.0807
      6 C          64.1274   86.2174   14.2096 C.3     1  UNL1        0.0415
      7 C          64.4840   87.5072   14.8871 C.3     1  UNL1        0.0925
      8 C          67.3633   92.8631   14.7985 C.3     1  UNL1        0.0327
      9 C          66.1159   92.1290   15.1922 C.ar    1  UNL1       -0.0015
     10 C          65.2251   92.6847   16.2634 C.ar    1  UNL1        0.0947
     11 N          63.9776   91.9506   16.6571 N.ar    1  UNL1       -0.2414
     12 C          63.6210   90.6608   15.9795 C.ar    1  UNL1        0.1133
     13 C          64.5118   90.1051   14.9083 C.ar    1  UNL1        0.0670
     14 C          65.7592   90.8392   14.5146 C.ar    1  UNL1        0.0134
     15 C          62.7537   84.9337   10.7351 C.ar    1  UNL1        0.0515
     16 C          63.6323   84.1905    9.7730 C.ar    1  UNL1        0.0148
     17 C          63.3006   84.1785    8.3101 C.ar    1  UNL1        0.0051
     18 C          62.0904   84.9097    7.8094 C.ar    1  UNL1        0.0715
     19 C          61.2118   85.6529    8.7715 C.ar    1  UNL1        0.0051
     20 C          61.5434   85.6649   10.2343 C.ar    1  UNL1        0.0148
     21 C          61.7589   84.8976    6.3466 C.3     1  UNL1        0.4186
     22 F          61.4273   84.8856    4.8837 F       1  UNL1       -0.1659
     23 F          60.3314   85.2282    6.6674 F       1  UNL1       -0.1659
     24 F          63.1863   84.5670    6.0257 F       1  UNL1       -0.1659
     25 C          63.0602   83.6679   12.9831 C.ar    1  UNL1        0.0710
     26 C          63.9562   82.5301   12.5928 C.ar    1  UNL1        0.0180
     27 C          63.9312   81.2523   13.3780 C.ar    1  UNL1        0.0220
     28 C          63.0102   81.1123   14.5536 C.ar    1  UNL1        0.0990
     29 N          62.1142   82.2502   14.9440 N.ar    1  UNL1       -0.2410
     30 C          62.1392   83.5280   14.1587 C.ar    1  UNL1        0.1136
@<TRIPOS>BOND
     1     8     9    1
     2     9    10   ar
     3    10    11   ar
     4    11    12   ar
     5    12    13   ar
     6    13     2    1
     7     2     3    1
     8     3     4    1
     9     4     5    1
    10     5     1    1
    11     1    15    1
    12    15    16   ar
    13    16    17   ar
    14    17    18   ar
    15    18    21    1
    16    21    22    1
    17    21    23    1
    18    21    24    1
    19    18    19   ar
    20    19    20   ar
    21     1    25    1
    22    25    26   ar
    23    26    27   ar
    24    27    28   ar
    25    28    29   ar
    26    29    30   ar
    27     5     6    1
    28     6     7    1
    29    13    14   ar
    30    14     9   ar
    31     7     2    1
    32    20    15   ar
    33    30    25   ar
@<TRIPOS>MOLECULE
*****
 30 33 0 0 0
SMALL
GASTEIGER

@<TRIPOS>ATOM
      1 N          62.0447   86.6477   11.1409 N.pl3   1  UNL1       -0.2872
      2 N          64.2121   90.2965   12.6371 N.pl3   1  UNL1       -0.3062
      3 C          63.4683   90.3471   11.3355 C.3     1  UNL1        0.0925
      4 C          62.7458   89.1308   10.8368 C.3     1  UNL1        0.0415
      5 C          62.7671   87.8640   11.6397 C.3     1  UNL1        0.0807
      6 C          63.5109   87.8134   12.9413 C.3     1  UNL1        0.0415
      7 C          64.2334   89.0296   13.4400 C.3     1  UNL1        0.0925
      8 C          66.4208   94.9099   11.7213 C.3     1  UNL1        0.0327
      9 C          66.0389   93.8194   12.6780 C.ar    1  UNL1       -0.0015
     10 C          66.3796   93.9452   14.1333 C.ar    1  UNL1        0.0947
     11 N          65.9977   92.8548   15.0900 N.ar    1  UNL1       -0.2414
     12 C          65.2752   91.6386   14.5913 C.ar    1  UNL1        0.1133
     13 C          64.9346   91.5128   13.1359 C.ar    1  UNL1        0.0670
     14 C          65.3164   92.6032   12.1793 C.ar    1  UNL1        0.0134
     15 C          62.2980   85.3123   11.7752 C.ar    1  UNL1        0.0515
     16 C          62.8259   84.1774   10.9486 C.ar    1  UNL1        0.0148
     17 C          63.0793   82.8419   11.5829 C.ar    1  UNL1        0.0051
     18 C          62.8046   82.6413   13.0438 C.ar    1  UNL1        0.0715
     19 C          62.2766   83.7762   13.8705 C.ar    1  UNL1        0.0051
     20 C          62.0233   85.1116   13.2362 C.ar    1  UNL1        0.0148
     21 C          63.0579   81.3058   13.6781 C.3     1  UNL1        0.4186
     22 F          63.3113   79.9703   14.3124 F       1  UNL1       -0.1659
     23 F          61.8930   81.5218   14.5980 F       1  UNL1       -0.1659
     24 F          64.2229   81.0899   12.7582 F       1  UNL1       -0.1659
     25 C          61.0689   86.7669   10.0080 C.ar    1  UNL1        0.0710
     26 C          59.9691   87.7850   10.0693 C.ar    1  UNL1        0.0180
     27 C          58.9933   87.9043    8.9364 C.ar    1  UNL1        0.0220
     28 C          59.1173   87.0054    7.7420 C.ar    1  UNL1        0.0990
     29 N          60.2171   85.9872    7.6806 N.ar    1  UNL1       -0.2410
     30 C          61.1929   85.8680    8.8136 C.ar    1  UNL1        0.1136
@<TRIPOS>BOND
     1     8     9    1
     2     9    10   ar
     3    10    11   ar
     4    11    12   ar
     5    12    13   ar
     6    13     2    1
     7     2     3    1
     8     3     4    1
     9     4     5    1
    10     5     1    1
    11     1    15    1
    12    15    16   ar
    13    16    17   ar
    14    17    18   ar
    15    18    21    1
    16    21    22    1
    17    21    23    1
    18    21    24    1
    19    18    19   ar
    20    19    20   ar
    21     1    25    1
    22    25    26   ar
    23    26    27   ar
    24    27    28   ar
    25    28    29   ar
    26    29    30   ar
    27     5     6    1
    28     6     7    1
    29    13    14   ar
    30    14     9   ar
    31     7     2    1
    32    20    15   ar
    33    30    25   ar
@<TRIPOS>MOLECULE
*****
 30 33 0 0 0
SMALL
GASTEIGER

@<TRIPOS>ATOM
      1 N          62.8449   86.1051   12.3117 N.pl3   1  UNL1       -0.2872
      2 N          64.7539   89.6303   14.3559 N.pl3   1  UNL1       -0.3062
      3 C          64.0041   89.8239   13.0713 C.3     1  UNL1        0.0925
      4 C          63.3678   88.6488   12.3898 C.3     1  UNL1        0.0415
      5 C          63.4812   87.2802   12.9931 C.3     1  UNL1        0.0807
      6 C          64.2310   87.0866   14.2778 C.3     1  UNL1        0.0415
      7 C          64.8673   88.2617   14.9592 C.3     1  UNL1        0.0925
      8 C          68.8760   92.7010   15.1171 C.3     1  UNL1        0.0327
      9 C          67.4513   92.3407   15.4179 C.ar    1  UNL1       -0.0015
     10 C          66.6630   93.1554   16.4001 C.ar    1  UNL1        0.0947
     11 N          65.2383   92.7952   16.7009 N.ar    1  UNL1       -0.2414
     12 C          64.6020   91.6202   16.0195 C.ar    1  UNL1        0.1133
     13 C          65.3903   90.8054   15.0373 C.ar    1  UNL1        0.0670
     14 C          66.8149   91.1657   14.7365 C.ar    1  UNL1        0.0134
     15 C          61.9906   86.3149   11.0968 C.ar    1  UNL1        0.0515
     16 C          62.3763   85.6855    9.7910 C.ar    1  UNL1        0.0148
     17 C          61.5220   85.8953    8.5759 C.ar    1  UNL1        0.0051
     18 C          60.2821   86.7345    8.6667 C.ar    1  UNL1        0.0715
     19 C          59.8964   87.3639    9.9725 C.ar    1  UNL1        0.0051
     20 C          60.7506   87.1541   11.1875 C.ar    1  UNL1        0.0148
     21 C          59.4279   86.9443    7.4518 C.3     1  UNL1        0.4186
     22 F          58.5736   87.1541    6.2367 F       1  UNL1       -0.1659
     23 F          59.6932   85.5321    7.0214 F       1  UNL1       -0.1659
     24 F          59.1626   88.3565    7.8821 F       1  UNL1       -0.1659
     25 C          63.0628   84.7203   12.8454 C.ar    1  UNL1        0.0710
     26 C          64.0458   83.8052   12.1774 C.ar    1  UNL1        0.0180
     27 C          64.2637   82.4204   12.7110 C.ar    1  UNL1        0.0220
     28 C          63.4986   81.9506   13.9126 C.ar    1  UNL1        0.0990
     29 N          62.5156   82.8657   14.5806 N.ar    1  UNL1       -0.2410
     30 C          62.2977   84.2506   14.0470 C.ar    1  UNL1        0.1136
@<TRIPOS>BOND
     1     8     9    1
     2     9    10   ar
     3    10    11   ar
     4    11    12   ar
     5    12    13   ar
     6    13     2    1
     7     2     3    1
     8     3     4    1
     9     4     5    1
    10     5     1    1
    11     1    15    1
    12    15    16   ar
    13    16    17   ar
    14    17    18   ar
    15    18    21    1
    16    21    22    1
    17    21    23    1
    18    21    24    1
    19    18    19   ar
    20    19    20   ar
    21     1    25    1
    22    25    26   ar
    23    26    27   ar
    24    27    28   ar
    25    28    29   ar
    26    29    30   ar
    27     5     6    1
    28     6     7    1
    29    13    14   ar
    30    14     9   ar
    31     7     2    1
    32    20    15   ar
    33    30    25   ar
@<TRIPOS>MOLECULE
*****
 30 33 0 0 0
SMALL
GASTEIGER

@<TRIPOS>ATOM
      1 N          62.6739   88.5665   12.1035 N.pl3   1  UNL1       -0.2872
      2 N          62.8359   84.0960   12.5921 N.pl3   1  UNL1       -0.3062
      3 C          63.5656   84.9828   13.5570 C.3     1  UNL1        0.0925
      4 C          63.5116   86.4730   13.3941 C.3     1  UNL1        0.0415
      5 C          62.7279   87.0763   12.2664 C.3     1  UNL1        0.0807
      6 C          61.9982   86.1894   11.3014 C.3     1  UNL1        0.0415
      7 C          62.0522   84.6993   11.4643 C.3     1  UNL1        0.0925
      8 C          62.8444   79.3383   10.5029 C.3     1  UNL1        0.0327
      9 C          62.8941   80.2270   11.7103 C.ar    1  UNL1       -0.0015
     10 C          62.9978   79.6255   13.0805 C.ar    1  UNL1        0.0947
     11 N          63.0475   80.5142   14.2879 N.ar    1  UNL1       -0.2414
     12 C          62.9935   82.0043   14.1251 C.ar    1  UNL1        0.1133
     13 C          62.8898   82.6058   12.7549 C.ar    1  UNL1        0.0670
     14 C          62.8401   81.7171   11.5475 C.ar    1  UNL1        0.0134
     15 C          63.6257   89.4392   12.8665 C.ar    1  UNL1        0.0515
     16 C          64.1593   88.9864   14.1933 C.ar    1  UNL1        0.0148
     17 C          65.1112   89.8593   14.9563 C.ar    1  UNL1        0.0051
     18 C          65.5294   91.1849   14.3926 C.ar    1  UNL1        0.0715
     19 C          64.9958   91.6377   13.0658 C.ar    1  UNL1        0.0051
     20 C          64.0440   90.7649   12.3028 C.ar    1  UNL1        0.0148
     21 C          66.4812   92.0577   15.1556 C.3     1  UNL1        0.4186
     22 F          67.4330   92.9306   15.9187 F       1  UNL1       -0.1659
     23 F          67.6045   91.6073   14.2695 F       1  UNL1       -0.1659
     24 F          65.3579   92.5081   16.0417 F       1  UNL1       -0.1659
     25 C          61.6681   89.1838   11.1776 C.ar    1  UNL1        0.0710
     26 C          61.7416   88.9152    9.7037 C.ar    1  UNL1        0.0180
     27 C          60.7358   89.5326    8.7778 C.ar    1  UNL1        0.0220
     28 C          59.6565   90.4184    9.3258 C.ar    1  UNL1        0.0990
     29 N          59.5831   90.6870   10.7997 N.ar    1  UNL1       -0.2410
     30 C          60.5889   90.0697   11.7256 C.ar    1  UNL1        0.1136
@<TRIPOS>BOND
     1     8     9    1
     2     9    10   ar
     3    10    11   ar
     4    11    12   ar
     5    12    13   ar
     6    13     2    1
     7     2     3    1
     8     3     4    1
     9     4     5    1
    10     5     1    1
    11     1    15    1
    12    15    16   ar
    13    16    17   ar
    14    17    18   ar
    15    18    21    1
    16    21    22    1
    17    21    23    1
    18    21    24    1
    19    18    19   ar
    20    19    20   ar
    21     1    25    1
    22    25    26   ar
    23    26    27   ar
    24    27    28   ar
    25    28    29   ar
    26    29    30   ar
    27     5     6    1
    28     6     7    1
    29    13    14   ar
    30    14     9   ar
    31     7     2    1
    32    20    15   ar
    33    30    25   ar
