@<TRIPOS>MOLECULE
*****
 16 17 0 0 0
SMALL
GASTEIGER

@<TRIPOS>ATOM
      1 C          66.0133   93.2846   11.9994 C.ar    1  UNL1        0.0304
      2 C          65.0946   92.1000   12.0520 C.ar    1  UNL1        0.0067
      3 C          65.0328   91.6241   13.4732 C.ar    1  UNL1        0.0040
      4 C          65.9134   92.5146   14.2989 C.ar    1  UNL1        0.0230
      5 S          66.5194   93.5408   13.3880 S.2     1  UNL1       -0.0899
      6 C          68.0092   92.2023   10.0384 C.3     1  UNL1        0.0311
      7 C          67.3623   93.5332    9.7929 C.ar    1  UNL1       -0.0183
      8 C          67.7133   94.3229    8.5669 C.ar    1  UNL1        0.0164
      9 C          67.0664   95.6538    8.3214 C.ar    1  UNL1        0.0986
     10 N          66.0685   96.1950    9.3019 N.ar    1  UNL1       -0.2423
     11 C          65.7175   95.4052   10.5278 C.ar    1  UNL1        0.0990
     12 C          66.3644   94.0743   10.7734 C.ar    1  UNL1        0.0212
     13 C          66.1470   92.3991   15.7761 C.3     1  UNL1        0.0987
     14 N          65.0693   92.7998   16.7394 N.3     1  UNL1       -0.3170
     15 H          64.9078   93.8045   16.6701 H       1  UNL1        0.1192
     16 H          65.3584   92.5666   17.6893 H       1  UNL1        0.1192
@<TRIPOS>BOND
     1     6     7    1
     2     7     8   ar
     3     8     9   ar
     4     9    10   ar
     5    10    11   ar
     6    11    12   ar
     7    12     1    1
     8     1     2   ar
     9     2     3   ar
    10     3     4   ar
    11     4    13    1
    12    13    14    1
    13     4     5   ar
    14    12     7   ar
    15     5     1   ar
    16    14    15    1
    17    14    16    1
@<TRIPOS>MOLECULE
*****
 16 17 0 0 0
SMALL
GASTEIGER

@<TRIPOS>ATOM
      1 C          65.8030   92.8601   11.8771 C.ar    1  UNL1        0.0304
      2 C          66.3630   92.5697   13.2380 C.ar    1  UNL1        0.0067
      3 C          65.5049   91.5189   13.8778 C.ar    1  UNL1        0.0040
      4 C          64.4145   91.1597   12.9123 C.ar    1  UNL1        0.0230
      5 S          64.5988   91.9887   11.6758 S.2     1  UNL1       -0.0899
      6 C          67.9363   92.0220    9.9414 C.3     1  UNL1        0.0311
      7 C          67.4176   93.4293    9.9229 C.ar    1  UNL1       -0.0183
      8 C          67.9656   94.4176    8.9365 C.ar    1  UNL1        0.0164
      9 C          67.4469   95.8250    8.9179 C.ar    1  UNL1        0.0986
     10 N          66.3803   96.2440    9.8857 N.ar    1  UNL1       -0.2423
     11 C          65.8324   95.2558   10.8721 C.ar    1  UNL1        0.0990
     12 C          66.3510   93.8484   10.8907 C.ar    1  UNL1        0.0212
     13 C          63.3303   90.1491   13.1428 C.3     1  UNL1        0.0987
     14 N          62.6761   90.0448   14.4885 N.3     1  UNL1       -0.3170
     15 H          63.3588   89.7222   15.1743 H       1  UNL1        0.1192
     16 H          61.9030   89.3812   14.4402 H       1  UNL1        0.1192
@<TRIPOS>BOND
     1     6     7    1
     2     7     8   ar
     3     8     9   ar
     4     9    10   ar
     5    10    11   ar
     6    11    12   ar
     7    12     1    1
     8     1     2   ar
     9     2     3   ar
    10     3     4   ar
    11     4    13    1
    12    13    14    1
    13     4     5   ar
    14    12     7   ar
    15     5     1   ar
    16    14    15    1
    17    14    16    1
@<TRIPOS>MOLECULE
*****
 16 17 0 0 0
SMALL
GASTEIGER

@<TRIPOS>ATOM
      1 C          66.1996   93.2860   11.2752 C.ar    1  UNL1        0.0304
      2 C          67.1936   92.7824   10.2711 C.ar    1  UNL1        0.0067
      3 C          67.6763   93.9542    9.4688 C.ar    1  UNL1        0.0040
      4 C          66.9805   95.1821    9.9770 C.ar    1  UNL1        0.0230
      5 S          66.0679   94.7691   11.0935 S.2     1  UNL1       -0.0899
      6 C          63.8453   91.6313   10.4271 C.3     1  UNL1        0.0311
      7 C          64.2888   91.6254   11.8600 C.ar    1  UNL1       -0.0183
      8 C          63.5553   90.7923   12.8688 C.ar    1  UNL1        0.0164
      9 C          63.9989   90.7864   14.3017 C.ar    1  UNL1        0.0986
     10 N          65.1760   91.6137   14.7258 N.ar    1  UNL1       -0.2423
     11 C          65.9096   92.4469   13.7170 C.ar    1  UNL1        0.0990
     12 C          65.4660   92.4527   12.2841 C.ar    1  UNL1        0.0212
     13 C          67.1651   96.5779    9.4597 C.3     1  UNL1        0.0987
     14 N          67.8350   96.8050    8.1369 N.3     1  UNL1       -0.3170
     15 H          68.8109   96.5143    8.1958 H       1  UNL1        0.1192
     16 H          67.7890   97.7956    7.8982 H       1  UNL1        0.1192
@<TRIPOS>BOND
     1     6     7    1
     2     7     8   ar
     3     8     9   ar
     4     9    10   ar
     5    10    11   ar
     6    11    12   ar
     7    12     1    1
     8     1     2   ar
     9     2     3   ar
    10     3     4   ar
    11     4    13    1
    12    13    14    1
    13     4     5   ar
    14    12     7   ar
    15     5     1   ar
    16    14    15    1
    17    14    16    1
@<TRIPOS>MOLECULE
*****
 16 17 0 0 0
SMALL
GASTEIGER

@<TRIPOS>ATOM
      1 C          61.4925   86.5254   10.1785 C.ar    1  UNL1        0.0304
      2 C          60.4439   86.5165    9.1059 C.ar    1  UNL1        0.0067
      3 C          59.8325   87.8848    9.0439 C.ar    1  UNL1        0.0040
      4 C          60.5033   88.7395   10.0782 C.ar    1  UNL1        0.0230
      5 S          61.5292   87.8994   10.7793 S.2     1  UNL1       -0.0899
      6 C          63.0912   85.0571    8.1077 C.3     1  UNL1        0.0311
      7 C          63.1526   84.6302    9.5443 C.ar    1  UNL1       -0.0183
      8 C          64.0134   83.4692    9.9456 C.ar    1  UNL1        0.0164
      9 C          64.0748   83.0423   11.3823 C.ar    1  UNL1        0.0986
     10 N          63.2754   83.7764   12.4177 N.ar    1  UNL1       -0.2423
     11 C          62.4147   84.9374   12.0164 C.ar    1  UNL1        0.0990
     12 C          62.3533   85.3643   10.5797 C.ar    1  UNL1        0.0212
     13 C          60.2012   90.1812   10.3615 C.3     1  UNL1        0.0987
     14 N          59.7412   90.5967   11.7274 N.3     1  UNL1       -0.3170
     15 H          58.8250   90.1900   11.9159 H       1  UNL1        0.1192
     16 H          59.6770   91.6138   11.7698 H       1  UNL1        0.1192
@<TRIPOS>BOND
     1     6     7    1
     2     7     8   ar
     3     8     9   ar
     4     9    10   ar
     5    10    11   ar
     6    11    12   ar
     7    12     1    1
     8     1     2   ar
     9     2     3   ar
    10     3     4   ar
    11     4    13    1
    12    13    14    1
    13     4     5   ar
    14    12     7   ar
    15     5     1   ar
    16    14    15    1
    17    14    16    1
@<TRIPOS>MOLECULE
*****
 16 17 0 0 0
SMALL
GASTEIGER

@<TRIPOS>ATOM
      1 C          65.2511   91.1262   13.7016 C.ar    1  UNL1        0.0304
      2 C          64.6098   89.8607   14.1887 C.ar    1  UNL1        0.0067
      3 C          63.4478   89.5546   13.2909 C.ar    1  UNL1        0.0040
      4 C          63.3709   90.6309   12.2489 C.ar    1  UNL1        0.0230
      5 S          64.4854   91.6022   12.5028 S.2     1  UNL1       -0.0899
      6 C          65.0609   92.3541   16.4322 C.3     1  UNL1        0.0311
      7 C          66.3529   92.4117   15.6723 C.ar    1  UNL1       -0.0183
      8 C          67.5497   93.0833   16.2777 C.ar    1  UNL1        0.0164
      9 C          68.8417   93.1409   15.5177 C.ar    1  UNL1        0.0986
     10 N          68.9369   92.5270   14.1525 N.ar    1  UNL1       -0.2423
     11 C          67.7400   91.8554   13.5471 C.ar    1  UNL1        0.0990
     12 C          66.4480   91.7978   14.3070 C.ar    1  UNL1        0.0212
     13 C          62.3575   90.7203   11.1467 C.3     1  UNL1        0.0987
     14 N          62.7433   91.3004    9.8183 N.3     1  UNL1       -0.3170
     15 H          62.9616   92.2905    9.9302 H       1  UNL1        0.1192
     16 H          61.9686   91.1949    9.1633 H       1  UNL1        0.1192
@<TRIPOS>BOND
     1     6     7    1
     2     7     8   ar
     3     8     9   ar
     4     9    10   ar
     5    10    11   ar
     6    11    12   ar
     7    12     1    1
     8     1     2   ar
     9     2     3   ar
    10     3     4   ar
    11     4    13    1
    12    13    14    1
    13     4     5   ar
    14    12     7   ar
    15     5     1   ar
    16    14    15    1
    17    14    16    1
@<TRIPOS>MOLECULE
*****
 16 17 0 0 0
SMALL
GASTEIGER

@<TRIPOS>ATOM
      1 C          62.7522   84.8701   10.9598 C.ar    1  UNL1        0.0304
      2 C          63.4524   84.5568    9.6707 C.ar    1  UNL1        0.0067
      3 C          62.6995   85.2266    8.5596 C.ar    1  UNL1        0.0040
      4 C          61.5340   85.9538    9.1620 C.ar    1  UNL1        0.0230
      5 S          61.5665   85.7334   10.6453 S.2     1  UNL1       -0.0899
      6 C          62.7426   81.9408   11.6073 C.3     1  UNL1        0.0311
      7 C          63.1603   82.9374   12.6475 C.ar    1  UNL1       -0.0183
      8 C          63.5732   82.4695   14.0115 C.ar    1  UNL1        0.0164
      9 C          63.9909   83.4662   15.0518 C.ar    1  UNL1        0.0986
     10 N          63.9956   84.9308   14.7281 N.ar    1  UNL1       -0.2423
     11 C          63.5828   85.3987   13.3641 C.ar    1  UNL1        0.0990
     12 C          63.1651   84.4020   12.3238 C.ar    1  UNL1        0.0212
     13 C          60.5149   86.7599    8.4125 C.3     1  UNL1        0.0987
     14 N          59.4786   86.0685    7.5770 N.3     1  UNL1       -0.3170
     15 H          59.9321   85.5967    6.7945 H       1  UNL1        0.1192
     16 H          58.8148   86.7561    7.2208 H       1  UNL1        0.1192
@<TRIPOS>BOND
     1     6     7    1
     2     7     8   ar
     3     8     9   ar
     4     9    10   ar
     5    10    11   ar
     6    11    12   ar
     7    12     1    1
     8     1     2   ar
     9     2     3   ar
    10     3     4   ar
    11     4    13    1
    12    13    14    1
    13     4     5   ar
    14    12     7   ar
    15     5     1   ar
    16    14    15    1
    17    14    16    1
@<TRIPOS>MOLECULE
*****
 16 17 0 0 0
SMALL
GASTEIGER

@<TRIPOS>ATOM
      1 C          61.6516   86.8177    9.8066 C.ar    1  UNL1        0.0304
      2 C          61.9168   88.2455   10.1818 C.ar    1  UNL1        0.0067
      3 C          61.0160   89.1165    9.3573 C.ar    1  UNL1        0.0040
      4 C          60.1939   88.2269    8.4724 C.ar    1  UNL1        0.0230
      5 S          60.5868   86.8062    8.7501 S.2     1  UNL1       -0.0899
      6 C          63.2257   84.9839    8.0290 C.3     1  UNL1        0.0311
      7 C          63.1188   84.6959    9.4973 C.ar    1  UNL1       -0.0183
      8 C          63.7989   83.4911   10.0767 C.ar    1  UNL1        0.0164
      9 C          63.6920   83.2032   11.5450 C.ar    1  UNL1        0.0986
     10 N          62.9050   84.1201   12.4337 N.ar    1  UNL1       -0.2423
     11 C          62.2249   85.3249   11.8542 C.ar    1  UNL1        0.0990
     12 C          62.3318   85.6128   10.3860 C.ar    1  UNL1        0.0212
     13 C          59.1605   88.6787    7.4836 C.3     1  UNL1        0.0987
     14 N          59.4682   89.8011    6.5372 N.3     1  UNL1       -0.3170
     15 H          59.5902   90.6661    7.0638 H       1  UNL1        0.1192
     16 H          58.6980   89.9105    5.8775 H       1  UNL1        0.1192
@<TRIPOS>BOND
     1     6     7    1
     2     7     8   ar
     3     8     9   ar
     4     9    10   ar
     5    10    11   ar
     6    11    12   ar
     7    12     1    1
     8     1     2   ar
     9     2     3   ar
    10     3     4   ar
    11     4    13    1
    12    13    14    1
    13     4     5   ar
    14    12     7   ar
    15     5     1   ar
    16    14    15    1
    17    14    16    1
@<TRIPOS>MOLECULE
*****
 16 17 0 0 0
SMALL
GASTEIGER

@<TRIPOS>ATOM
      1 C          62.3463   85.8281    9.8049 C.ar    1  UNL1        0.0304
      2 C          63.1406   85.0394    8.8064 C.ar    1  UNL1        0.0067
      3 C          63.7104   83.8427    9.5086 C.ar    1  UNL1        0.0040
      4 C          63.2683   83.8917   10.9412 C.ar    1  UNL1        0.0230
      5 S          62.4252   85.1188   11.1242 S.2     1  UNL1       -0.0899
      6 C          60.1645   85.8813    7.7465 C.3     1  UNL1        0.0311
      7 C          60.5126   87.1290    8.5028 C.ar    1  UNL1       -0.0183
      8 C          59.7698   88.4033    8.2300 C.ar    1  UNL1        0.0164
      9 C          60.1180   89.6510    8.9863 C.ar    1  UNL1        0.0986
     10 N          61.2089   89.6244   10.0155 N.ar    1  UNL1       -0.2423
     11 C          61.9516   88.3502   10.2883 C.ar    1  UNL1        0.0990
     12 C          61.6035   87.1024    9.5320 C.ar    1  UNL1        0.0212
     13 C          63.6094   82.8897   12.0039 C.3     1  UNL1        0.0987
     14 N          64.9893   82.3054   12.0686 N.3     1  UNL1       -0.3170
     15 H          65.1573   81.7373   11.2383 H       1  UNL1        0.1192
     16 H          65.0732   81.7228   12.9017 H       1  UNL1        0.1192
@<TRIPOS>BOND
     1     6     7    1
     2     7     8   ar
     3     8     9   ar
     4     9    10   ar
     5    10    11   ar
     6    11    12   ar
     7    12     1    1
     8     1     2   ar
     9     2     3   ar
    10     3     4   ar
    11     4    13    1
    12    13    14    1
    13     4     5   ar
    14    12     7   ar
    15     5     1   ar
    16    14    15    1
    17    14    16    1
@<TRIPOS>MOLECULE
*****
 16 17 0 0 0
SMALL
GASTEIGER

@<TRIPOS>ATOM
      1 C          62.0551   85.6572    9.6377 C.ar    1  UNL1        0.0304
      2 C          63.1265   84.8871    8.9244 C.ar    1  UNL1        0.0067
      3 C          63.8115   84.0075    9.9280 C.ar    1  UNL1        0.0040
      4 C          63.1633   84.2341   11.2617 C.ar    1  UNL1        0.0230
      5 S          62.0779   85.2537   11.0823 S.2     1  UNL1       -0.0899
      6 C          62.3226   88.5715   10.2978 C.3     1  UNL1        0.0311
      7 C          61.2581   88.1127    9.3458 C.ar    1  UNL1       -0.0183
      8 C          60.3273   89.1111    8.7239 C.ar    1  UNL1        0.0164
      9 C          59.2627   88.6524    7.7719 C.ar    1  UNL1        0.0986
     10 N          59.1290   87.1953    7.4418 N.ar    1  UNL1       -0.2423
     11 C          60.0598   86.1969    8.0638 C.ar    1  UNL1        0.0990
     12 C          61.1243   86.6557    9.0158 C.ar    1  UNL1        0.0212
     13 C          63.5354   83.5596   12.5488 C.3     1  UNL1        0.0987
     14 N          64.6810   82.5919   12.5845 N.3     1  UNL1       -0.3170
     15 H          64.4514   81.7723   12.0224 H       1  UNL1        0.1192
     16 H          64.8543   82.3057   13.5481 H       1  UNL1        0.1192
@<TRIPOS>BOND
     1     6     7    1
     2     7     8   ar
     3     8     9   ar
     4     9    10   ar
     5    10    11   ar
     6    11    12   ar
     7    12     1    1
     8     1     2   ar
     9     2     3   ar
    10     3     4   ar
    11     4    13    1
    12    13    14    1
    13     4     5   ar
    14    12     7   ar
    15     5     1   ar
    16    14    15    1
    17    14    16    1
