@<TRIPOS>MOLECULE
*****
 22 24 0 0 0
SMALL
GASTEIGER

@<TRIPOS>ATOM
      1 C          63.7057   89.1276   13.4811 C.ar    1  UNL1       -0.0159
      2 C          63.9097   87.6606   13.7183 C.ar    1  UNL1        0.0050
      3 S          63.2689   86.9145   12.5858 S.2     1  UNL1       -0.0915
      4 C          62.6687   87.9203   11.6487 C.ar    1  UNL1        0.0288
      5 C          61.9113   87.7674   10.3630 C.ar    1  UNL1        0.0065
      6 C          61.4239   88.9824    9.6307 C.ar    1  UNL1        0.0005
      7 C          61.6939   90.3502   10.1841 C.ar    1  UNL1        0.0000
      8 C          62.4513   90.5031   11.4697 C.ar    1  UNL1        0.0002
      9 C          62.9387   89.2882   12.2020 C.ar    1  UNL1        0.0025
     10 C          63.5896   90.4189   15.7326 C.3     1  UNL1        0.0094
     11 C          64.1845   90.2390   14.3674 C.3     1  UNL1        0.0449
     12 C          65.2581   91.1706   13.8885 C.ar    1  UNL1       -0.0153
     13 C          66.5958   91.1854   14.5672 C.ar    1  UNL1        0.0167
     14 C          67.6695   92.1170   14.0884 C.ar    1  UNL1        0.0986
     15 N          67.4056   93.0338   12.9309 N.ar    1  UNL1       -0.2423
     16 C          66.0680   93.0190   12.2522 C.ar    1  UNL1        0.0986
     17 C          64.9943   92.0874   12.7310 C.ar    1  UNL1        0.0167
     18 C          64.6284   87.0474   14.8833 C.3     1  UNL1        0.0499
     19 C          64.3323   85.6336   15.2875 C.3     1  UNL1        0.0774
     20 N          63.0380   85.3043   15.9705 N.3     1  UNL1       -0.2700
     21 C          62.1575   84.2190   15.4256 C.3     1  UNL1        0.0897
     22 C          62.6243   86.0601   17.1983 C.3     1  UNL1        0.0897
@<TRIPOS>BOND
     1    10    11    1
     2    11    12    1
     3    12    13   ar
     4    13    14   ar
     5    14    15   ar
     6    15    16   ar
     7    16    17   ar
     8    11     1    1
     9     1     2   ar
    10     2    18    1
    11    18    19    1
    12    19    20    1
    13    20    21    1
    14    20    22    1
    15     2     3   ar
    16     3     4   ar
    17     4     5   ar
    18     5     6   ar
    19     6     7   ar
    20     7     8   ar
    21     8     9   ar
    22    17    12   ar
    23     9     1   ar
    24     9     4   ar
@<TRIPOS>MOLECULE
*****
 22 24 0 0 0
SMALL
GASTEIGER

@<TRIPOS>ATOM
      1 C          61.4521   88.1923   10.8407 C.ar    1  UNL1       -0.0159
      2 C          62.2133   86.9517   11.2033 C.ar    1  UNL1        0.0050
      3 S          61.9650   85.9271   10.1362 S.2     1  UNL1       -0.0915
      4 C          61.0503   86.5345    9.1142 C.ar    1  UNL1        0.0288
      5 C          60.4651   85.9937    7.8434 C.ar    1  UNL1        0.0065
      6 C          59.5630   86.8528    7.0080 C.ar    1  UNL1        0.0005
      7 C          59.2460   88.2528    7.4434 C.ar    1  UNL1        0.0000
      8 C          59.8312   88.7937    8.7142 C.ar    1  UNL1        0.0002
      9 C          60.7333   87.9345    9.5496 C.ar    1  UNL1        0.0025
     10 C          60.1564   89.8782   12.3338 C.3     1  UNL1        0.0094
     11 C          61.4160   89.4670   11.6305 C.3     1  UNL1        0.0449
     12 C          62.6394   90.3306   11.7173 C.ar    1  UNL1       -0.0153
     13 C          63.3823   90.4506   13.0149 C.ar    1  UNL1        0.0167
     14 C          64.6057   91.3141   13.1017 C.ar    1  UNL1        0.0986
     15 N          65.0862   92.0577   11.8908 N.ar    1  UNL1       -0.2423
     16 C          64.3434   91.9377   10.5932 C.ar    1  UNL1        0.0986
     17 C          63.1200   91.0741   10.5064 C.ar    1  UNL1        0.0167
     18 C          63.0720   86.7679   12.4193 C.3     1  UNL1        0.0499
     19 C          63.2888   85.3953   12.9840 C.3     1  UNL1        0.0774
     20 N          63.2914   85.1872   14.4695 N.3     1  UNL1       -0.2700
     21 C          62.4000   84.1483   15.0828 C.3     1  UNL1        0.0897
     22 C          64.1854   86.0180   15.3416 C.3     1  UNL1        0.0897
@<TRIPOS>BOND
     1    10    11    1
     2    11    12    1
     3    12    13   ar
     4    13    14   ar
     5    14    15   ar
     6    15    16   ar
     7    16    17   ar
     8    11     1    1
     9     1     2   ar
    10     2    18    1
    11    18    19    1
    12    19    20    1
    13    20    21    1
    14    20    22    1
    15     2     3   ar
    16     3     4   ar
    17     4     5   ar
    18     5     6   ar
    19     6     7   ar
    20     7     8   ar
    21     8     9   ar
    22    17    12   ar
    23     9     1   ar
    24     9     4   ar
@<TRIPOS>MOLECULE
*****
 22 24 0 0 0
SMALL
GASTEIGER

@<TRIPOS>ATOM
      1 C          64.8279   91.7616   12.5591 C.ar    1  UNL1       -0.0159
      2 C          63.9108   90.7589   13.1942 C.ar    1  UNL1        0.0050
      3 S          64.2329   90.6980   14.6579 S.2     1  UNL1       -0.0915
      4 C          65.3492   91.6631   14.9275 C.ar    1  UNL1        0.0288
      5 C          66.0782   92.0282   16.1864 C.ar    1  UNL1        0.0065
      6 C          67.1750   93.0507   16.1483 C.ar    1  UNL1        0.0005
      7 C          67.5427   93.7081   14.8511 C.ar    1  UNL1        0.0000
      8 C          66.8137   93.3429   13.5921 C.ar    1  UNL1        0.0002
      9 C          65.7169   92.3204   13.6303 C.ar    1  UNL1        0.0025
     10 C          63.7135   91.7487   10.2121 C.3     1  UNL1        0.0094
     11 C          64.8519   92.1392   11.1076 C.3     1  UNL1        0.0449
     12 C          66.0140   92.9073   10.5515 C.ar    1  UNL1       -0.0153
     13 C          67.2497   92.1814   10.1082 C.ar    1  UNL1        0.0167
     14 C          68.4119   92.9494    9.5521 C.ar    1  UNL1        0.0986
     15 N          68.3386   94.4434    9.4393 N.ar    1  UNL1       -0.2423
     16 C          67.1030   95.1693    9.8825 C.ar    1  UNL1        0.0986
     17 C          65.9408   94.4012   10.4386 C.ar    1  UNL1        0.0167
     18 C          62.8566   89.9577   12.4894 C.3     1  UNL1        0.0499
     19 C          63.0798   88.4997   12.2166 C.3     1  UNL1        0.0774
     20 N          62.0343   87.7032   11.4937 N.3     1  UNL1       -0.2700
     21 C          62.2403   86.2366   11.2555 C.3     1  UNL1        0.0897
     22 C          60.7829   88.3733   11.0091 C.3     1  UNL1        0.0897
@<TRIPOS>BOND
     1    10    11    1
     2    11    12    1
     3    12    13   ar
     4    13    14   ar
     5    14    15   ar
     6    15    16   ar
     7    16    17   ar
     8    11     1    1
     9     1     2   ar
    10     2    18    1
    11    18    19    1
    12    19    20    1
    13    20    21    1
    14    20    22    1
    15     2     3   ar
    16     3     4   ar
    17     4     5   ar
    18     5     6   ar
    19     6     7   ar
    20     7     8   ar
    21     8     9   ar
    22    17    12   ar
    23     9     1   ar
    24     9     4   ar
@<TRIPOS>MOLECULE
*****
 22 24 0 0 0
SMALL
GASTEIGER

@<TRIPOS>ATOM
      1 C          63.7615   90.5355   13.8549 C.ar    1  UNL1       -0.0159
      2 C          62.7237   90.3128   12.7949 C.ar    1  UNL1        0.0050
      3 S          63.2085   90.9558   11.5294 S.2     1  UNL1       -0.0915
      4 C          64.5458   91.5758   11.8072 C.ar    1  UNL1        0.0288
      5 C          65.4965   92.3433   10.9371 C.ar    1  UNL1        0.0065
      6 C          66.7889   92.8512   11.5043 C.ar    1  UNL1        0.0005
      7 C          67.1306   92.5914   12.9416 C.ar    1  UNL1        0.0000
      8 C          66.1800   91.8239   13.8117 C.ar    1  UNL1        0.0002
      9 C          64.8876   91.3161   13.2445 C.ar    1  UNL1        0.0025
     10 C          63.5895   91.0556   16.3946 C.3     1  UNL1        0.0094
     11 C          63.6863   90.0610   15.2759 C.3     1  UNL1        0.0449
     12 C          63.7078   88.5920   15.5782 C.ar    1  UNL1       -0.0153
     13 C          63.0368   88.0707   16.8143 C.ar    1  UNL1        0.0167
     14 C          63.0583   86.6017   17.1167 C.ar    1  UNL1        0.0986
     15 N          63.7509   85.6538   16.1829 N.ar    1  UNL1       -0.2423
     16 C          64.4219   86.1751   14.9468 C.ar    1  UNL1        0.0986
     17 C          64.4004   87.6441   14.6444 C.ar    1  UNL1        0.0167
     18 C          61.4287   89.5765   12.9697 C.3     1  UNL1        0.0499
     19 C          60.3813   89.6363   11.8977 C.3     1  UNL1        0.0774
     20 N          60.4701   88.7237   10.7106 N.3     1  UNL1       -0.2700
     21 C          60.7993   87.2729   10.9028 C.3     1  UNL1        0.0897
     22 C          60.2299   89.2618    9.3312 C.3     1  UNL1        0.0897
@<TRIPOS>BOND
     1    10    11    1
     2    11    12    1
     3    12    13   ar
     4    13    14   ar
     5    14    15   ar
     6    15    16   ar
     7    16    17   ar
     8    11     1    1
     9     1     2   ar
    10     2    18    1
    11    18    19    1
    12    19    20    1
    13    20    21    1
    14    20    22    1
    15     2     3   ar
    16     3     4   ar
    17     4     5   ar
    18     5     6   ar
    19     6     7   ar
    20     7     8   ar
    21     8     9   ar
    22    17    12   ar
    23     9     1   ar
    24     9     4   ar
@<TRIPOS>MOLECULE
*****
 22 24 0 0 0
SMALL
GASTEIGER

@<TRIPOS>ATOM
      1 C          63.7544   89.0938   13.5694 C.ar    1  UNL1       -0.0159
      2 C          63.0079   89.2518   12.2781 C.ar    1  UNL1        0.0050
      3 S          62.7232   87.8821   11.7368 S.2     1  UNL1       -0.0915
      4 C          63.2938   86.8777   12.6936 C.ar    1  UNL1        0.0288
      5 C          63.3153   85.3779   12.6798 C.ar    1  UNL1        0.0065
      6 C          63.9742   84.6270   13.7987 C.ar    1  UNL1        0.0005
      7 C          64.6116   85.3759   14.9314 C.ar    1  UNL1        0.0000
      8 C          64.5900   86.8757   14.9452 C.ar    1  UNL1        0.0002
      9 C          63.9311   87.6265   13.8263 C.ar    1  UNL1        0.0025
     10 C          63.6325   90.4095   15.8065 C.3     1  UNL1        0.0094
     11 C          64.2392   90.2075   14.4495 C.3     1  UNL1        0.0449
     12 C          65.3306   91.1193   13.9729 C.ar    1  UNL1       -0.0153
     13 C          65.0884   92.0349   12.8095 C.ar    1  UNL1        0.0167
     14 C          66.1799   92.9467   12.3328 C.ar    1  UNL1        0.0986
     15 N          67.5135   92.9431   13.0194 N.ar    1  UNL1       -0.2423
     16 C          67.7557   92.0276   14.1826 C.ar    1  UNL1        0.0986
     17 C          66.6643   91.1158   14.6594 C.ar    1  UNL1        0.0167
     18 C          62.6150   90.5512   11.6400 C.3     1  UNL1        0.0499
     19 C          61.9211   90.5542   10.3102 C.3     1  UNL1        0.0774
     20 N          60.4997   90.0867   10.2049 N.3     1  UNL1       -0.2700
     21 C          59.4971   90.4948   11.2434 C.3     1  UNL1        0.0897
     22 C          60.0808   89.2113    9.0612 C.3     1  UNL1        0.0897
@<TRIPOS>BOND
     1    10    11    1
     2    11    12    1
     3    12    13   ar
     4    13    14   ar
     5    14    15   ar
     6    15    16   ar
     7    16    17   ar
     8    11     1    1
     9     1     2   ar
    10     2    18    1
    11    18    19    1
    12    19    20    1
    13    20    21    1
    14    20    22    1
    15     2     3   ar
    16     3     4   ar
    17     4     5   ar
    18     5     6   ar
    19     6     7   ar
    20     7     8   ar
    21     8     9   ar
    22    17    12   ar
    23     9     1   ar
    24     9     4   ar
@<TRIPOS>MOLECULE
*****
 22 24 0 0 0
SMALL
GASTEIGER

@<TRIPOS>ATOM
      1 C          63.8329   90.8619   13.2942 C.ar    1  UNL1       -0.0159
      2 C          64.7885   91.6350   12.4345 C.ar    1  UNL1        0.0050
      3 S          64.2354   91.6681   11.0406 S.2     1  UNL1       -0.0915
      4 C          62.9379   90.9155   11.0388 C.ar    1  UNL1        0.0288
      5 C          61.9508   90.6194    9.9489 C.ar    1  UNL1        0.0065
      6 C          60.7150   89.8252   10.2517 C.ar    1  UNL1        0.0005
      7 C          60.4662   89.3269   11.6445 C.ar    1  UNL1        0.0000
      8 C          61.4533   89.6229   12.7344 C.ar    1  UNL1        0.0002
      9 C          62.6891   90.4172   12.4316 C.ar    1  UNL1        0.0025
     10 C          64.3147   91.7013   15.7053 C.3     1  UNL1        0.0094
     11 C          63.9928   90.5826   14.7592 C.3     1  UNL1        0.0449
     12 C          63.8310   89.1847   15.2783 C.ar    1  UNL1       -0.0153
     13 C          63.1040   88.9429   16.5679 C.ar    1  UNL1        0.0167
     14 C          62.9421   87.5449   17.0870 C.ar    1  UNL1        0.0986
     15 N          63.5073   86.3886   16.3165 N.ar    1  UNL1       -0.2423
     16 C          64.2343   86.6304   15.0269 C.ar    1  UNL1        0.0986
     17 C          64.3962   88.0283   14.5078 C.ar    1  UNL1        0.0167
     18 C          66.0720   92.2645   12.8890 C.3     1  UNL1        0.0499
     19 C          66.3722   93.6920   12.5394 C.3     1  UNL1        0.0774
     20 N          66.8624   94.0405   11.1652 N.3     1  UNL1       -0.2700
     21 C          67.5237   92.9947   10.3172 C.3     1  UNL1        0.0897
     22 C          66.6912   95.4347   10.6391 C.3     1  UNL1        0.0897
@<TRIPOS>BOND
     1    10    11    1
     2    11    12    1
     3    12    13   ar
     4    13    14   ar
     5    14    15   ar
     6    15    16   ar
     7    16    17   ar
     8    11     1    1
     9     1     2   ar
    10     2    18    1
    11    18    19    1
    12    19    20    1
    13    20    21    1
    14    20    22    1
    15     2     3   ar
    16     3     4   ar
    17     4     5   ar
    18     5     6   ar
    19     6     7   ar
    20     7     8   ar
    21     8     9   ar
    22    17    12   ar
    23     9     1   ar
    24     9     4   ar
@<TRIPOS>MOLECULE
*****
 22 24 0 0 0
SMALL
GASTEIGER

@<TRIPOS>ATOM
      1 C          63.5262   86.6540   13.1951 C.ar    1  UNL1       -0.0159
      2 C          63.1597   85.2403   12.8527 C.ar    1  UNL1        0.0050
      3 S          62.3617   85.2630   11.5828 S.2     1  UNL1       -0.0915
      4 C          62.2349   86.6907   11.1404 C.ar    1  UNL1        0.0288
      5 C          61.5571   87.3189    9.9590 C.ar    1  UNL1        0.0065
      6 C          61.5990   88.8068    9.7740 C.ar    1  UNL1        0.0005
      7 C          62.3187   89.6665   10.7705 C.ar    1  UNL1        0.0000
      8 C          62.9965   89.0383   11.9519 C.ar    1  UNL1        0.0002
      9 C          62.9546   87.5503   12.1369 C.ar    1  UNL1        0.0025
     10 C          65.3107   86.1560   15.0166 C.3     1  UNL1        0.0094
     11 C          64.3241   87.0940   14.3866 C.3     1  UNL1        0.0449
     12 C          64.1355   88.4720   14.9482 C.ar    1  UNL1       -0.0153
     13 C          63.2780   88.6765   16.1619 C.ar    1  UNL1        0.0167
     14 C          63.0894   90.0545   16.7235 C.ar    1  UNL1        0.0986
     15 N          63.7583   91.2282   16.0714 N.ar    1  UNL1       -0.2423
     16 C          64.6157   91.0237   14.8578 C.ar    1  UNL1        0.0986
     17 C          64.8044   89.6457   14.2962 C.ar    1  UNL1        0.0167
     18 C          63.5269   84.0185   13.6416 C.3     1  UNL1        0.0499
     19 C          62.4510   83.1382   14.2050 C.3     1  UNL1        0.0774
     20 N          62.1152   81.8402   13.5324 N.3     1  UNL1       -0.2700
     21 C          62.8434   81.4306   12.2866 C.3     1  UNL1        0.0897
     22 C          61.0512   80.9517   14.1055 C.3     1  UNL1        0.0897
@<TRIPOS>BOND
     1    10    11    1
     2    11    12    1
     3    12    13   ar
     4    13    14   ar
     5    14    15   ar
     6    15    16   ar
     7    16    17   ar
     8    11     1    1
     9     1     2   ar
    10     2    18    1
    11    18    19    1
    12    19    20    1
    13    20    21    1
    14    20    22    1
    15     2     3   ar
    16     3     4   ar
    17     4     5   ar
    18     5     6   ar
    19     6     7   ar
    20     7     8   ar
    21     8     9   ar
    22    17    12   ar
    23     9     1   ar
    24     9     4   ar
@<TRIPOS>MOLECULE
*****
 22 24 0 0 0
SMALL
GASTEIGER

@<TRIPOS>ATOM
      1 C          62.9674   85.3215   11.8962 C.ar    1  UNL1       -0.0159
      2 C          63.4735   86.0430   13.1099 C.ar    1  UNL1        0.0050
      3 S          63.7949   85.0188   14.1576 S.2     1  UNL1       -0.0915
      4 C          63.4875   83.6642   13.5913 C.ar    1  UNL1        0.0288
      5 C          63.6073   82.2846   14.1678 C.ar    1  UNL1        0.0065
      6 C          63.2156   81.0921   13.3466 C.ar    1  UNL1        0.0005
      7 C          62.7041   81.2792   11.9489 C.ar    1  UNL1        0.0000
      8 C          62.5844   82.6588   11.3725 C.ar    1  UNL1        0.0002
      9 C          62.9761   83.8513   12.1937 C.ar    1  UNL1        0.0025
     10 C          62.8149   85.2811    9.3028 C.3     1  UNL1        0.0094
     11 C          62.5295   85.9583   10.6106 C.3     1  UNL1        0.0449
     12 C          61.8062   87.2721   10.6326 C.ar    1  UNL1       -0.0153
     13 C          60.4538   87.3731   11.2736 C.ar    1  UNL1        0.0167
     14 C          59.7304   88.6869   11.2956 C.ar    1  UNL1        0.0986
     15 N          60.3595   89.8999   10.6767 N.ar    1  UNL1       -0.2423
     16 C          61.7118   89.7989   10.0357 C.ar    1  UNL1        0.0986
     17 C          62.4352   88.4851   10.0137 C.ar    1  UNL1        0.0167
     18 C          63.6305   87.5281   13.2512 C.3     1  UNL1        0.0499
     19 C          64.2832   88.1002   14.4746 C.3     1  UNL1        0.0774
     20 N          63.6718   89.2815   15.1680 N.3     1  UNL1       -0.2700
     21 C          63.6069   90.6088   14.4721 C.3     1  UNL1        0.0897
     22 C          63.1252   89.1355   16.5572 C.3     1  UNL1        0.0897
@<TRIPOS>BOND
     1    10    11    1
     2    11    12    1
     3    12    13   ar
     4    13    14   ar
     5    14    15   ar
     6    15    16   ar
     7    16    17   ar
     8    11     1    1
     9     1     2   ar
    10     2    18    1
    11    18    19    1
    12    19    20    1
    13    20    21    1
    14    20    22    1
    15     2     3   ar
    16     3     4   ar
    17     4     5   ar
    18     5     6   ar
    19     6     7   ar
    20     7     8   ar
    21     8     9   ar
    22    17    12   ar
    23     9     1   ar
    24     9     4   ar
@<TRIPOS>MOLECULE
*****
 22 24 0 0 0
SMALL
GASTEIGER

@<TRIPOS>ATOM
      1 C          63.4771   87.1615   13.0395 C.ar    1  UNL1       -0.0159
      2 C          63.6527   88.6426   13.1989 C.ar    1  UNL1        0.0050
      3 S          62.9682   89.3171   12.0471 S.2     1  UNL1       -0.0915
      4 C          62.3695   88.2528   11.1759 C.ar    1  UNL1        0.0288
      5 C          61.5786   88.3248    9.9034 C.ar    1  UNL1        0.0065
      6 C          61.1023   87.0644    9.2442 C.ar    1  UNL1        0.0005
      7 C          61.4168   85.7322    9.8575 C.ar    1  UNL1        0.0000
      8 C          62.2076   85.6602   11.1300 C.ar    1  UNL1        0.0002
      9 C          62.6840   86.9206   11.7892 C.ar    1  UNL1        0.0025
     10 C          64.9016   86.4887   15.1055 C.3     1  UNL1        0.0094
     11 C          64.0023   86.1064   13.9674 C.3     1  UNL1        0.0449
     12 C          63.6282   84.6691   13.7573 C.ar    1  UNL1       -0.0153
     13 C          64.4148   83.8213   12.8019 C.ar    1  UNL1        0.0167
     14 C          64.0408   82.3840   12.5918 C.ar    1  UNL1        0.0986
     15 N          62.8802   81.7944   13.3371 N.ar    1  UNL1       -0.2423
     16 C          62.0937   82.6421   14.2925 C.ar    1  UNL1        0.0986
     17 C          62.4677   84.0794   14.5026 C.ar    1  UNL1        0.0167
     18 C          64.3844   89.3287   14.3141 C.3     1  UNL1        0.0499
     19 C          64.1130   90.7736   14.6120 C.3     1  UNL1        0.0774
     20 N          65.1503   91.8113   14.3003 N.3     1  UNL1       -0.2700
     21 C          65.3545   92.2664   12.8856 C.3     1  UNL1        0.0897
     22 C          65.9834   92.3938   15.4032 C.3     1  UNL1        0.0897
@<TRIPOS>BOND
     1    10    11    1
     2    11    12    1
     3    12    13   ar
     4    13    14   ar
     5    14    15   ar
     6    15    16   ar
     7    16    17   ar
     8    11     1    1
     9     1     2   ar
    10     2    18    1
    11    18    19    1
    12    19    20    1
    13    20    21    1
    14    20    22    1
    15     2     3   ar
    16     3     4   ar
    17     4     5   ar
    18     5     6   ar
    19     6     7   ar
    20     7     8   ar
    21     8     9   ar
    22    17    12   ar
    23     9     1   ar
    24     9     4   ar
