@<TRIPOS>MOLECULE
*****
 41 46 0 0 0
SMALL
GASTEIGER

@<TRIPOS>ATOM
      1 C          65.8379   91.3473   14.1202 C.ar    1  UNL1        0.0853
      2 N          65.2779   90.2388   14.9614 N.ar    1  UNL1       -0.2279
      3 C          64.1157   89.4323   14.4624 C.ar    1  UNL1        0.1596
      4 N          63.5557   88.3238   15.3036 N.pl3   1  UNL1       -0.3402
      5 C          63.5135   89.7344   13.1221 C.ar    1  UNL1        0.1695
      6 C          64.0735   90.8429   12.2810 C.ar    1  UNL1        0.0410
      7 C          65.2357   91.6493   12.7801 C.ar    1  UNL1        0.0173
      8 H          63.9509   88.1255   16.1832 H       1  UNL1        0.1438
      9 H          62.7929   87.7945   14.9761 H       1  UNL1        0.1438
     10 C          65.7957   92.7579   11.9389 C.2     1  UNL1       -0.0161
     11 C          65.4513   94.1839   12.2515 C.2     1  UNL1       -0.0023
     12 C          66.0113   95.2925   11.4104 C.2     1  UNL1        0.0203
     13 C          66.9157   94.9750   10.2565 C.2     1  UNL1        0.1004
     14 N          67.6133   95.8499    9.2577 N.2     1  UNL1       -0.1486
     15 N          68.3888   94.9647    8.3277 N.2     1  UNL1       -0.1527
     16 C          68.1705   93.5426    8.7518 C.2     1  UNL1        0.0787
     17 C          68.7592   92.3274    8.0985 C.3     1  UNL1        0.0537
     18 C          67.2600   93.5489    9.9439 C.2     1  UNL1        0.0169
     19 C          66.7000   92.4404   10.7851 C.3     1  UNL1        0.0555
     20 C          68.8447   91.3662   12.8524 C.3     1  UNL1        0.0725
     21 C          68.3822   92.1624   14.0365 C.ar    1  UNL1        0.1248
     22 O          69.2205   93.1071   14.8457 O.2     1  UNL1       -0.4546
     23 C          68.3564   93.6823   15.9285 C.ar    1  UNL1        0.1792
     24 C          66.9841   93.0930   15.7886 C.ar    1  UNL1        0.0448
     25 C          67.0000   92.1537   14.6193 C.ar    1  UNL1        0.0511
     26 O          62.3513   88.9280   12.6231 O.3     1  UNL1       -0.4712
     27 C          61.3610   89.5440   11.6799 C.3     1  UNL1        0.2211
     28 C          60.8825   88.7724   10.4858 C.3     1  UNL1        0.0995
     29 N          60.6561   89.4753    9.1802 N.3     1  UNL1       -0.3190
     30 H          60.3344   88.8032    8.4836 H       1  UNL1        0.1189
     31 H          61.5293   89.8988    8.8662 H       1  UNL1        0.1189
     32 C          60.6305   87.2978   10.5974 C.3     1  UNL1        0.0472
     33 C          61.5792   86.3246    9.9628 C.2     1  UNL1       -0.0005
     34 C          61.8627   86.1991    8.4952 C.2     1  UNL1        0.0942
     35 N          62.8698   85.1030    8.3098 N.2     1  UNL1       -0.2482
     36 C          63.2086   84.5511    9.6628 C.2     1  UNL1        0.0631
     37 C          64.1405   83.4586   10.0965 C.3     1  UNL1        0.0717
     38 C          64.2746   83.1212   11.5519 C.2     1  UNL1       -0.0198
     39 C          63.4770   83.8762   12.5735 C.2     1  UNL1       -0.0042
     40 C          62.5452   84.9687   12.1398 C.2     1  UNL1        0.0006
     41 C          62.4110   85.3061   10.6844 C.2     1  UNL1        0.0114
@<TRIPOS>BOND
     1    20    21    1
     2    21    22   ar
     3    22    23   ar
     4    23    24   ar
     5    24    25   ar
     6    25     1    1
     7     1     2   ar
     8     2     3   ar
     9     3     4    1
    10     3     5   ar
    11     5    26    1
    12    26    27    1
    13    27    28    1
    14    28    29    1
    15    28    32    1
    16    32    33    1
    17    33    34    2
    18    34    35    1
    19    35    36    2
    20    36    37    1
    21    37    38    1
    22    38    39    2
    23    39    40    1
    24    40    41    2
    25     5     6   ar
    26     6     7   ar
    27     7    10    1
    28    10    11    2
    29    11    12    1
    30    12    13    2
    31    13    14    1
    32    14    15    2
    33    15    16    1
    34    16    17    1
    35    16    18    2
    36    18    19    1
    37    25    21   ar
    38     7     1   ar
    39    19    10    1
    40    41    33    1
    41    18    13    1
    42    41    36    1
    43     4     8    1
    44     4     9    1
    45    29    30    1
    46    29    31    1
@<TRIPOS>MOLECULE
*****
 41 46 0 0 0
SMALL
GASTEIGER

@<TRIPOS>ATOM
      1 C          61.7562   86.9864    9.4202 C.ar    1  UNL1        0.0853
      2 N          61.3684   88.4305    9.3018 N.ar    1  UNL1       -0.2279
      3 C          61.5604   89.3566   10.4661 C.ar    1  UNL1        0.1596
      4 N          61.1726   90.8007   10.3477 N.pl3   1  UNL1       -0.3402
      5 C          62.1403   88.8384   11.7488 C.ar    1  UNL1        0.1695
      6 C          62.5282   87.3943   11.8672 C.ar    1  UNL1        0.0410
      7 C          62.3361   86.4683   10.7028 C.ar    1  UNL1        0.0173
      8 H          60.7920   91.1408    9.5058 H       1  UNL1        0.1438
      9 H          61.2987   91.4085   11.1118 H       1  UNL1        0.1438
     10 C          62.7239   85.0241   10.8212 C.2     1  UNL1       -0.0161
     11 C          63.6636   84.4156    9.8229 C.2     1  UNL1       -0.0023
     12 C          64.0514   82.9715    9.9413 C.2     1  UNL1        0.0203
     13 C          63.4996   82.1358   11.0580 C.2     1  UNL1        0.1004
     14 N          63.6998   80.6960   11.4277 N.2     1  UNL1       -0.1486
     15 N          62.8839   80.4145   12.6545 N.2     1  UNL1       -0.1527
     16 C          62.1793   81.6805   13.0430 C.2     1  UNL1        0.0787
     17 C          61.2563   81.8524   14.2128 C.3     1  UNL1        0.0537
     18 C          62.5598   82.7443   12.0563 C.2     1  UNL1        0.0169
     19 C          62.1720   84.1884   11.9379 C.3     1  UNL1        0.0555
     20 C          58.9501   86.4399    7.8466 C.3     1  UNL1        0.0725
     21 C          60.2743   85.8091    7.5326 C.ar    1  UNL1        0.1248
     22 O          60.5412   84.8165    6.4402 O.2     1  UNL1       -0.4546
     23 C          61.9960   84.4542    6.4883 C.ar    1  UNL1        0.1792
     24 C          62.6282   85.2229    7.6105 C.ar    1  UNL1        0.0448
     25 C          61.5642   86.0603    8.2559 C.ar    1  UNL1        0.0511
     26 O          62.3324   89.7644   12.9131 O.3     1  UNL1       -0.4712
     27 C          63.4633   90.7498   12.9090 C.3     1  UNL1        0.2211
     28 C          64.4546   90.7583   14.0347 C.3     1  UNL1        0.0995
     29 N          64.8842   92.0590   14.6459 N.3     1  UNL1       -0.3190
     30 H          65.5565   91.8787   15.3916 H       1  UNL1        0.1189
     31 H          64.0706   92.5391   15.0305 H       1  UNL1        0.1189
     32 C          65.0164   89.4660   14.5492 C.3     1  UNL1        0.0472
     33 C          64.1646   88.5583   15.3861 C.2     1  UNL1       -0.0005
     34 C          63.2069   88.9881   16.4576 C.2     1  UNL1        0.0942
     35 N          62.5713   87.7569   17.0322 N.2     1  UNL1       -0.2482
     36 C          63.1362   86.5662   16.3158 C.2     1  UNL1        0.0631
     37 C          62.8812   85.0950   16.4584 C.3     1  UNL1        0.0717
     38 C          63.6109   84.1191   15.5837 C.2     1  UNL1       -0.0198
     39 C          64.5956   84.6144   14.5664 C.2     1  UNL1       -0.0042
     40 C          64.8506   86.0857   14.4238 C.2     1  UNL1        0.0006
     41 C          64.1209   87.0615   15.2985 C.2     1  UNL1        0.0114
@<TRIPOS>BOND
     1    20    21    1
     2    21    22   ar
     3    22    23   ar
     4    23    24   ar
     5    24    25   ar
     6    25     1    1
     7     1     2   ar
     8     2     3   ar
     9     3     4    1
    10     3     5   ar
    11     5    26    1
    12    26    27    1
    13    27    28    1
    14    28    29    1
    15    28    32    1
    16    32    33    1
    17    33    34    2
    18    34    35    1
    19    35    36    2
    20    36    37    1
    21    37    38    1
    22    38    39    2
    23    39    40    1
    24    40    41    2
    25     5     6   ar
    26     6     7   ar
    27     7    10    1
    28    10    11    2
    29    11    12    1
    30    12    13    2
    31    13    14    1
    32    14    15    2
    33    15    16    1
    34    16    17    1
    35    16    18    2
    36    18    19    1
    37    25    21   ar
    38     7     1   ar
    39    19    10    1
    40    41    33    1
    41    18    13    1
    42    41    36    1
    43     4     8    1
    44     4     9    1
    45    29    30    1
    46    29    31    1
@<TRIPOS>MOLECULE
*****
 41 46 0 0 0
SMALL
GASTEIGER

@<TRIPOS>ATOM
      1 C          61.8025   87.1248    9.5140 C.ar    1  UNL1        0.0853
      2 N          61.4606   88.5813    9.4066 N.ar    1  UNL1       -0.2279
      3 C          61.7426   89.5046   10.5546 C.ar    1  UNL1        0.1596
      4 N          61.4007   90.9611   10.4472 N.pl3   1  UNL1       -0.3402
      5 C          62.3666   88.9713   11.8102 C.ar    1  UNL1        0.1695
      6 C          62.7086   87.5148   11.9177 C.ar    1  UNL1        0.0410
      7 C          62.4265   86.5915   10.7695 C.ar    1  UNL1        0.0173
      8 H          60.9911   91.3111    9.6231 H       1  UNL1        0.1438
      9 H          61.5858   91.5671   11.2007 H       1  UNL1        0.1438
     10 C          62.7684   85.1350   10.8770 C.2     1  UNL1       -0.0161
     11 C          63.6058   84.4811    9.8181 C.2     1  UNL1       -0.0023
     12 C          63.9477   83.0245    9.9256 C.2     1  UNL1        0.0203
     13 C          63.4524   82.2219   11.0919 C.2     1  UNL1        0.1004
     14 N          63.6269   80.7794   11.4641 N.2     1  UNL1       -0.1486
     15 N          62.8974   80.5416   12.7530 N.2     1  UNL1       -0.1527
     16 C          62.2720   81.8373   13.1774 C.2     1  UNL1        0.0787
     17 C          61.4483   82.0562   14.4117 C.3     1  UNL1        0.0537
     18 C          62.6150   82.8758   12.1507 C.2     1  UNL1        0.0169
     19 C          62.2731   84.3323   12.0433 C.3     1  UNL1        0.0555
     20 C          58.8986   86.6502    8.1029 C.3     1  UNL1        0.0725
     21 C          60.1857   85.9834    7.7174 C.ar    1  UNL1        0.1248
     22 O          60.3640   84.9813    6.6155 O.2     1  UNL1       -0.4546
     23 C          61.8090   84.5801    6.5832 C.ar    1  UNL1        0.1792
     24 C          62.5238   85.3342    7.6650 C.ar    1  UNL1        0.0448
     25 C          61.5205   86.2015    8.3660 C.ar    1  UNL1        0.0511
     26 O          62.6486   89.8946   12.9583 O.3     1  UNL1       -0.4712
     27 C          63.3959   89.3928   14.1581 C.3     1  UNL1        0.2211
     28 C          64.1253   90.3579   15.0450 C.3     1  UNL1        0.0995
     29 N          63.3960   91.0544   16.1553 N.3     1  UNL1       -0.3190
     30 H          64.0406   91.6689   16.6525 H       1  UNL1        0.1189
     31 H          63.0197   90.3614   16.8022 H       1  UNL1        0.1189
     32 C          65.5842   90.6264   14.8215 C.3     1  UNL1        0.0472
     33 C          66.0323   91.9699   14.3271 C.2     1  UNL1       -0.0005
     34 C          66.8177   92.9802   15.1096 C.2     1  UNL1        0.0942
     35 N          67.0445   94.1735   14.2296 N.2     1  UNL1       -0.2482
     36 C          66.3993   93.9007   12.9032 C.2     1  UNL1        0.0631
     37 C          66.3006   94.7165   11.6484 C.3     1  UNL1        0.0717
     38 C          65.5763   94.1703   10.4538 C.2     1  UNL1       -0.0198
     39 C          64.9508   92.8083   10.5141 C.2     1  UNL1       -0.0042
     40 C          65.0494   91.9926   11.7689 C.2     1  UNL1        0.0006
     41 C          65.7737   92.5387   12.9635 C.2     1  UNL1        0.0114
@<TRIPOS>BOND
     1    20    21    1
     2    21    22   ar
     3    22    23   ar
     4    23    24   ar
     5    24    25   ar
     6    25     1    1
     7     1     2   ar
     8     2     3   ar
     9     3     4    1
    10     3     5   ar
    11     5    26    1
    12    26    27    1
    13    27    28    1
    14    28    29    1
    15    28    32    1
    16    32    33    1
    17    33    34    2
    18    34    35    1
    19    35    36    2
    20    36    37    1
    21    37    38    1
    22    38    39    2
    23    39    40    1
    24    40    41    2
    25     5     6   ar
    26     6     7   ar
    27     7    10    1
    28    10    11    2
    29    11    12    1
    30    12    13    2
    31    13    14    1
    32    14    15    2
    33    15    16    1
    34    16    17    1
    35    16    18    2
    36    18    19    1
    37    25    21   ar
    38     7     1   ar
    39    19    10    1
    40    41    33    1
    41    18    13    1
    42    41    36    1
    43     4     8    1
    44     4     9    1
    45    29    30    1
    46    29    31    1
@<TRIPOS>MOLECULE
*****
 41 46 0 0 0
SMALL
GASTEIGER

@<TRIPOS>ATOM
      1 C          65.2830   91.8172   13.3470 C.ar    1  UNL1        0.0853
      2 N          65.5733   92.7079   12.1755 N.ar    1  UNL1       -0.2279
      3 C          64.7706   92.5753   10.9153 C.ar    1  UNL1        0.1596
      4 N          65.0609   93.4660    9.7439 N.pl3   1  UNL1       -0.3402
      5 C          63.6775   91.5518   10.8266 C.ar    1  UNL1        0.1695
      6 C          63.3872   90.6610   11.9980 C.ar    1  UNL1        0.0410
      7 C          64.1900   90.7938   13.2582 C.ar    1  UNL1        0.0173
      8 H          65.7783   94.1377    9.8022 H       1  UNL1        0.1438
      9 H          64.5341   93.3789    8.9168 H       1  UNL1        0.1438
     10 C          63.8996   89.9030   14.4296 C.2     1  UNL1       -0.0161
     11 C          63.3279   90.4830   15.6893 C.2     1  UNL1       -0.0023
     12 C          63.0376   89.5922   16.8607 C.2     1  UNL1        0.0203
     13 C          63.3190   88.1215   16.7726 C.2     1  UNL1        0.1004
     14 N          63.1374   87.0041   17.7566 N.2     1  UNL1       -0.1486
     15 N          63.5969   85.7334   17.1052 N.2     1  UNL1       -0.1527
     16 C          64.0624   86.0657   15.7184 C.2     1  UNL1        0.0787
     17 C          64.6046   85.0928   14.7137 C.3     1  UNL1        0.0537
     18 C          63.8907   87.5416   15.5129 C.2     1  UNL1        0.0169
     19 C          64.1810   88.4323   14.3415 C.3     1  UNL1        0.0555
     20 C          68.5176   91.4717   13.6061 C.3     1  UNL1        0.0725
     21 C          67.5725   91.7910   14.7262 C.ar    1  UNL1        0.1248
     22 O          67.9483   92.0076   16.1622 O.2     1  UNL1       -0.4546
     23 C          66.6937   92.3003   16.9305 C.ar    1  UNL1        0.1792
     24 C          65.5425   92.2646   15.9695 C.ar    1  UNL1        0.0448
     25 C          66.0857   91.9498   14.6072 C.ar    1  UNL1        0.0511
     26 O          62.8748   91.4191    9.5664 O.3     1  UNL1       -0.4712
     27 C          62.0784   90.1737    9.3122 C.3     1  UNL1        0.2211
     28 C          60.8337   89.9046   10.1048 C.3     1  UNL1        0.0995
     29 N          60.0356   91.0474   10.6589 N.3     1  UNL1       -0.3190
     30 H          59.2287   90.6842   11.1662 H       1  UNL1        0.1189
     31 H          59.7168   91.6420    9.8938 H       1  UNL1        0.1189
     32 C          60.3871   88.4926   10.3435 C.3     1  UNL1        0.0472
     33 C          60.1566   87.5724    9.1815 C.2     1  UNL1       -0.0005
     34 C          58.9005   87.4783    8.3671 C.2     1  UNL1        0.0942
     35 N          59.1093   86.4324    7.3123 N.2     1  UNL1       -0.2482
     36 C          60.4944   85.8802    7.4748 C.2     1  UNL1        0.0631
     37 C          61.2499   84.8268    6.7202 C.3     1  UNL1        0.0717
     38 C          62.6527   84.4779    7.1208 C.2     1  UNL1       -0.0198
     39 C          63.2999   85.1825    8.2761 C.2     1  UNL1       -0.0042
     40 C          62.5444   86.2358    9.0307 C.2     1  UNL1        0.0006
     41 C          61.1417   86.5847    8.6301 C.2     1  UNL1        0.0114
@<TRIPOS>BOND
     1    20    21    1
     2    21    22   ar
     3    22    23   ar
     4    23    24   ar
     5    24    25   ar
     6    25     1    1
     7     1     2   ar
     8     2     3   ar
     9     3     4    1
    10     3     5   ar
    11     5    26    1
    12    26    27    1
    13    27    28    1
    14    28    29    1
    15    28    32    1
    16    32    33    1
    17    33    34    2
    18    34    35    1
    19    35    36    2
    20    36    37    1
    21    37    38    1
    22    38    39    2
    23    39    40    1
    24    40    41    2
    25     5     6   ar
    26     6     7   ar
    27     7    10    1
    28    10    11    2
    29    11    12    1
    30    12    13    2
    31    13    14    1
    32    14    15    2
    33    15    16    1
    34    16    17    1
    35    16    18    2
    36    18    19    1
    37    25    21   ar
    38     7     1   ar
    39    19    10    1
    40    41    33    1
    41    18    13    1
    42    41    36    1
    43     4     8    1
    44     4     9    1
    45    29    30    1
    46    29    31    1
@<TRIPOS>MOLECULE
*****
 41 46 0 0 0
SMALL
GASTEIGER

@<TRIPOS>ATOM
      1 C          62.8351   84.1118   14.8011 C.ar    1  UNL1        0.0853
      2 N          62.8183   84.3812   16.2766 N.ar    1  UNL1       -0.2279
      3 C          63.1620   85.7466   16.7937 C.ar    1  UNL1        0.1596
      4 N          63.1453   86.0160   18.2692 N.pl3   1  UNL1       -0.3402
      5 C          63.5225   86.8428   15.8352 C.ar    1  UNL1        0.1695
      6 C          63.5393   86.5735   14.3597 C.ar    1  UNL1        0.0410
      7 C          63.1955   85.2079   13.8427 C.ar    1  UNL1        0.0173
      8 H          62.9087   85.2966   18.8983 H       1  UNL1        0.1438
      9 H          63.3708   86.9122   18.6086 H       1  UNL1        0.1438
     10 C          63.2123   84.9386   12.3672 C.2     1  UNL1       -0.0161
     11 C          64.1579   83.9210   11.8012 C.2     1  UNL1       -0.0023
     12 C          64.1747   83.6516   10.3257 C.2     1  UNL1        0.0203
     13 C          63.2459   84.3998    9.4161 C.2     1  UNL1        0.1004
     14 N          63.0372   84.3484    7.9316 N.2     1  UNL1       -0.1486
     15 N          61.9627   85.3341    7.5800 N.2     1  UNL1       -0.1527
     16 C          61.5073   85.9949    8.8473 C.2     1  UNL1        0.0787
     17 C          60.4452   87.0481    8.9599 C.3     1  UNL1        0.0537
     18 C          62.3003   85.4175    9.9820 C.2     1  UNL1        0.0169
     19 C          62.2835   85.6868   11.4576 C.3     1  UNL1        0.0555
     20 C          64.9644   81.8281   13.8524 C.3     1  UNL1        0.0725
     21 C          63.4702   81.6966   13.8479 C.ar    1  UNL1        0.1248
     22 O          62.6923   80.4924   13.4066 O.2     1  UNL1       -0.4546
     23 C          61.2329   80.7979   13.5700 C.ar    1  UNL1        0.1792
     24 C          61.1087   82.1909   14.1122 C.ar    1  UNL1        0.0448
     25 C          62.4914   82.7464   14.2840 C.ar    1  UNL1        0.0511
     26 O          63.8662   88.2083   16.3523 O.3     1  UNL1       -0.4712
     27 C          63.1855   89.4184   15.7847 C.3     1  UNL1        0.2211
     28 C          63.9255   90.7197   15.6899 C.3     1  UNL1        0.0995
     29 N          63.4960   91.8893   16.5252 N.3     1  UNL1       -0.3190
     30 H          64.1054   92.6848   16.3352 H       1  UNL1        0.1189
     31 H          63.5572   91.6423   17.5130 H       1  UNL1        0.1189
     32 C          65.0950   90.8515   14.7598 C.3     1  UNL1        0.0472
     33 C          64.8914   91.3730   13.3681 C.2     1  UNL1       -0.0005
     34 C          65.5983   92.5444   12.7533 C.2     1  UNL1        0.0942
     35 N          65.0889   92.7099   11.3522 N.2     1  UNL1       -0.2482
     36 C          64.0673   91.6407   11.1011 C.2     1  UNL1        0.0631
     37 C          63.2324   91.3128    9.8988 C.3     1  UNL1        0.0717
     38 C          62.2754   90.1586    9.9426 C.2     1  UNL1       -0.0198
     39 C          62.1533   89.3323   11.1885 C.2     1  UNL1       -0.0042
     40 C          62.9882   89.6602   12.3907 C.2     1  UNL1        0.0006
     41 C          63.9452   90.8144   12.3470 C.2     1  UNL1        0.0114
@<TRIPOS>BOND
     1    20    21    1
     2    21    22   ar
     3    22    23   ar
     4    23    24   ar
     5    24    25   ar
     6    25     1    1
     7     1     2   ar
     8     2     3   ar
     9     3     4    1
    10     3     5   ar
    11     5    26    1
    12    26    27    1
    13    27    28    1
    14    28    29    1
    15    28    32    1
    16    32    33    1
    17    33    34    2
    18    34    35    1
    19    35    36    2
    20    36    37    1
    21    37    38    1
    22    38    39    2
    23    39    40    1
    24    40    41    2
    25     5     6   ar
    26     6     7   ar
    27     7    10    1
    28    10    11    2
    29    11    12    1
    30    12    13    2
    31    13    14    1
    32    14    15    2
    33    15    16    1
    34    16    17    1
    35    16    18    2
    36    18    19    1
    37    25    21   ar
    38     7     1   ar
    39    19    10    1
    40    41    33    1
    41    18    13    1
    42    41    36    1
    43     4     8    1
    44     4     9    1
    45    29    30    1
    46    29    31    1
@<TRIPOS>MOLECULE
*****
 41 46 0 0 0
SMALL
GASTEIGER

@<TRIPOS>ATOM
      1 C          63.3284   83.6123   13.1432 C.ar    1  UNL1        0.0853
      2 N          63.6798   83.5749   14.6010 N.ar    1  UNL1       -0.2279
      3 C          63.8803   84.8547   15.3572 C.ar    1  UNL1        0.1596
      4 N          64.2317   84.8173   16.8150 N.pl3   1  UNL1       -0.3402
      5 C          63.7296   86.1720   14.6556 C.ar    1  UNL1        0.1695
      6 C          63.3782   86.2094   13.1978 C.ar    1  UNL1        0.0410
      7 C          63.1776   84.9295   12.4416 C.ar    1  UNL1        0.0173
      8 H          64.3306   83.9527   17.2755 H       1  UNL1        0.1438
      9 H          64.3633   85.6573   17.3113 H       1  UNL1        0.1438
     10 C          62.8263   84.9669   10.9839 C.2     1  UNL1       -0.0161
     11 C          63.7134   84.2907    9.9810 C.2     1  UNL1       -0.0023
     12 C          63.3621   84.3281    8.5232 C.2     1  UNL1        0.0203
     13 C          62.1236   85.0417    8.0682 C.2     1  UNL1        0.1004
     14 N          61.5248   85.2451    6.7081 N.2     1  UNL1       -0.1486
     15 N          60.2676   86.0470    6.8703 N.2     1  UNL1       -0.1527
     16 C          60.0895   86.3392    8.3307 C.2     1  UNL1        0.0787
     17 C          58.9621   87.1164    8.9432 C.3     1  UNL1        0.0537
     18 C          61.2365   85.7179    9.0711 C.2     1  UNL1        0.0169
     19 C          61.5879   85.6805   10.5289 C.3     1  UNL1        0.0555
     20 C          61.3941   81.1401   14.0355 C.3     1  UNL1        0.0725
     21 C          62.2387   81.1961   12.7971 C.ar    1  UNL1        0.1248
     22 O          62.3425   80.1257   11.7515 O.2     1  UNL1       -0.4546
     23 C          63.2957   80.6004   10.6951 C.ar    1  UNL1        0.1792
     24 C          63.7811   81.9643   11.0879 C.ar    1  UNL1        0.0448
     25 C          63.1278   82.3325   12.3870 C.ar    1  UNL1        0.0511
     26 O          63.9301   87.4518   15.4118 O.3     1  UNL1       -0.4712
     27 C          64.4764   88.6597   14.7101 C.3     1  UNL1        0.2211
     28 C          63.7869   89.9844   14.8507 C.3     1  UNL1        0.0995
     29 N          62.3215   90.1026   14.5528 N.3     1  UNL1       -0.3190
     30 H          62.0214   91.0663   14.6997 H       1  UNL1        0.1189
     31 H          61.7976   89.4851   15.1729 H       1  UNL1        0.1189
     32 C          64.5628   91.1910   15.2893 C.3     1  UNL1        0.0472
     33 C          65.7447   91.6539   14.4900 C.2     1  UNL1       -0.0005
     34 C          67.1394   91.8447   15.0081 C.2     1  UNL1        0.0942
     35 N          67.9959   92.3161   13.8705 N.2     1  UNL1       -0.2482
     36 C          67.1307   92.4166   12.6493 C.2     1  UNL1        0.0631
     37 C          67.4300   92.8278   11.2383 C.3     1  UNL1        0.0717
     38 C          66.3379   92.8299   10.2100 C.2     1  UNL1       -0.0198
     39 C          64.9465   92.4207   10.5929 C.2     1  UNL1       -0.0042
     40 C          64.6472   92.0094   12.0040 C.2     1  UNL1        0.0006
     41 C          65.7393   92.0074   13.0322 C.2     1  UNL1        0.0114
@<TRIPOS>BOND
     1    20    21    1
     2    21    22   ar
     3    22    23   ar
     4    23    24   ar
     5    24    25   ar
     6    25     1    1
     7     1     2   ar
     8     2     3   ar
     9     3     4    1
    10     3     5   ar
    11     5    26    1
    12    26    27    1
    13    27    28    1
    14    28    29    1
    15    28    32    1
    16    32    33    1
    17    33    34    2
    18    34    35    1
    19    35    36    2
    20    36    37    1
    21    37    38    1
    22    38    39    2
    23    39    40    1
    24    40    41    2
    25     5     6   ar
    26     6     7   ar
    27     7    10    1
    28    10    11    2
    29    11    12    1
    30    12    13    2
    31    13    14    1
    32    14    15    2
    33    15    16    1
    34    16    17    1
    35    16    18    2
    36    18    19    1
    37    25    21   ar
    38     7     1   ar
    39    19    10    1
    40    41    33    1
    41    18    13    1
    42    41    36    1
    43     4     8    1
    44     4     9    1
    45    29    30    1
    46    29    31    1
@<TRIPOS>MOLECULE
*****
 41 46 0 0 0
SMALL
GASTEIGER

@<TRIPOS>ATOM
      1 C          65.1565   91.7286   13.3503 C.ar    1  UNL1        0.0853
      2 N          65.4196   92.6231   12.1753 N.ar    1  UNL1       -0.2279
      3 C          64.6346   92.4485   10.9091 C.ar    1  UNL1        0.1596
      4 N          64.8977   93.3430    9.7341 N.pl3   1  UNL1       -0.3402
      5 C          63.5864   91.3793   10.8179 C.ar    1  UNL1        0.1695
      6 C          63.3232   90.4848   11.9929 C.ar    1  UNL1        0.0410
      7 C          64.1083   90.6595   13.2591 C.ar    1  UNL1        0.0173
      8 H          65.5856   94.0447    9.7940 H       1  UNL1        0.1438
      9 H          64.3824   93.2284    8.9031 H       1  UNL1        0.1438
     10 C          63.8452   89.7650   14.4341 C.2     1  UNL1       -0.0161
     11 C          63.2311   90.3270   15.6819 C.2     1  UNL1       -0.0023
     12 C          62.9679   89.4324   16.8568 C.2     1  UNL1        0.0203
     13 C          63.3190   87.9760   16.7841 C.2     1  UNL1        0.1004
     14 N          63.1775   86.8587   17.7749 N.2     1  UNL1       -0.1486
     15 N          63.7042   85.6061   17.1396 N.2     1  UNL1       -0.1527
     16 C          64.1713   85.9494   15.7560 C.2     1  UNL1        0.0787
     17 C          64.7711   84.9954   14.7660 C.3     1  UNL1        0.0537
     18 C          63.9332   87.4140   15.5364 C.2     1  UNL1        0.0169
     19 C          64.1963   88.3085   14.3614 C.3     1  UNL1        0.0555
     20 C          68.3996   91.5128   13.6416 C.3     1  UNL1        0.0725
     21 C          67.4322   91.8040   14.7504 C.ar    1  UNL1        0.1248
     22 O          67.7857   92.0472   16.1877 O.2     1  UNL1       -0.4546
     23 C          66.5135   92.2967   16.9421 C.ar    1  UNL1        0.1792
     24 C          65.3737   92.2077   15.9710 C.ar    1  UNL1        0.0448
     25 C          65.9415   91.9032   14.6165 C.ar    1  UNL1        0.0511
     26 O          62.8013   91.2047    9.5517 O.3     1  UNL1       -0.4712
     27 C          62.0733   89.9192    9.2920 C.3     1  UNL1        0.2211
     28 C          60.7453   89.6650    9.9414 C.3     1  UNL1        0.0995
     29 N          59.9225   90.8152   10.4413 N.3     1  UNL1       -0.3190
     30 H          59.0574   90.4620   10.8503 H       1  UNL1        0.1189
     31 H          59.7017   91.4382    9.6644 H       1  UNL1        0.1189
     32 C          60.2401   88.2605   10.0909 C.3     1  UNL1        0.0472
     33 C          60.9722   87.1265    9.4366 C.2     1  UNL1       -0.0005
     34 C          60.9760   86.8084    7.9708 C.2     1  UNL1        0.0942
     35 N          61.8352   85.5968    7.7616 N.2     1  UNL1       -0.2482
     36 C          62.3624   85.1660    9.0982 C.2     1  UNL1        0.0631
     37 C          63.2592   84.0351    9.5064 C.3     1  UNL1        0.0717
     38 C          63.6227   83.8495   10.9498 C.2     1  UNL1       -0.0198
     39 C          63.0893   84.7949   11.9850 C.2     1  UNL1       -0.0042
     40 C          62.1925   85.9259   11.5769 C.2     1  UNL1        0.0006
     41 C          61.8290   86.1114   10.1335 C.2     1  UNL1        0.0114
@<TRIPOS>BOND
     1    20    21    1
     2    21    22   ar
     3    22    23   ar
     4    23    24   ar
     5    24    25   ar
     6    25     1    1
     7     1     2   ar
     8     2     3   ar
     9     3     4    1
    10     3     5   ar
    11     5    26    1
    12    26    27    1
    13    27    28    1
    14    28    29    1
    15    28    32    1
    16    32    33    1
    17    33    34    2
    18    34    35    1
    19    35    36    2
    20    36    37    1
    21    37    38    1
    22    38    39    2
    23    39    40    1
    24    40    41    2
    25     5     6   ar
    26     6     7   ar
    27     7    10    1
    28    10    11    2
    29    11    12    1
    30    12    13    2
    31    13    14    1
    32    14    15    2
    33    15    16    1
    34    16    17    1
    35    16    18    2
    36    18    19    1
    37    25    21   ar
    38     7     1   ar
    39    19    10    1
    40    41    33    1
    41    18    13    1
    42    41    36    1
    43     4     8    1
    44     4     9    1
    45    29    30    1
    46    29    31    1
@<TRIPOS>MOLECULE
*****
 41 46 0 0 0
SMALL
GASTEIGER

@<TRIPOS>ATOM
      1 C          61.8172   86.9900    9.4285 C.ar    1  UNL1        0.0853
      2 N          61.4662   88.4443    9.3196 N.ar    1  UNL1       -0.2279
      3 C          61.6983   89.3611   10.4840 C.ar    1  UNL1        0.1596
      4 N          61.3474   90.8153   10.3752 N.pl3   1  UNL1       -0.3402
      5 C          62.2815   88.8235   11.7572 C.ar    1  UNL1        0.1695
      6 C          62.6325   87.3692   11.8661 C.ar    1  UNL1        0.0410
      7 C          62.4003   86.4525   10.7016 C.ar    1  UNL1        0.0173
      8 H          60.9646   91.1682    9.5396 H       1  UNL1        0.1438
      9 H          61.4997   91.4170   11.1394 H       1  UNL1        0.1438
     10 C          62.7513   84.9982   10.8104 C.2     1  UNL1       -0.0161
     11 C          63.6342   84.3605    9.7790 C.2     1  UNL1       -0.0023
     12 C          63.9852   82.9063    9.8878 C.2     1  UNL1        0.0203
     13 C          63.4534   82.0896   11.0280 C.2     1  UNL1        0.1004
     14 N          63.6269   80.6457   11.3951 N.2     1  UNL1       -0.1486
     15 N          62.8513   80.3908   12.6535 N.2     1  UNL1       -0.1527
     16 C          62.1984   81.6774   13.0641 C.2     1  UNL1        0.0787
     17 C          61.3265   81.8786   14.2680 C.3     1  UNL1        0.0537
     18 C          62.5705   82.7273   12.0595 C.2     1  UNL1        0.0169
     19 C          62.2195   84.1816   11.9507 C.3     1  UNL1        0.0555
     20 C          58.9586   86.4563    7.9477 C.3     1  UNL1        0.0725
     21 C          60.2711   85.8280    7.5834 C.ar    1  UNL1        0.1248
     22 O          60.5001   84.8440    6.4747 O.2     1  UNL1       -0.4546
     23 C          61.9555   84.4813    6.4701 C.ar    1  UNL1        0.1792
     24 C          62.6261   85.2410    7.5760 C.ar    1  UNL1        0.0448
     25 C          61.5851   86.0733    8.2641 C.ar    1  UNL1        0.0511
     26 O          62.5137   89.7402   12.9216 O.3     1  UNL1       -0.4712
     27 C          63.0431   89.1922   14.2136 C.3     1  UNL1        0.2211
     28 C          63.9322   90.0363   15.0779 C.3     1  UNL1        0.0995
     29 N          63.3888   90.6602   16.3291 N.3     1  UNL1       -0.3190
     30 H          64.1250   91.1955   16.7894 H       1  UNL1        0.1189
     31 H          63.0569   89.9285   16.9575 H       1  UNL1        0.1189
     32 C          65.3647   90.2564   14.6910 C.3     1  UNL1        0.0472
     33 C          65.8774   91.6493   14.4739 C.2     1  UNL1       -0.0005
     34 C          65.2858   92.6726   13.5504 C.2     1  UNL1        0.0942
     35 N          66.1144   93.9191   13.6480 N.2     1  UNL1       -0.2482
     36 C          67.2182   93.6662   14.6318 C.2     1  UNL1        0.0631
     37 C          68.3377   94.5320   15.1287 C.3     1  UNL1        0.0717
     38 C          69.3107   93.9950   16.1361 C.2     1  UNL1       -0.0198
     39 C          69.1641   92.5922   16.6465 C.2     1  UNL1       -0.0042
     40 C          68.0446   91.7263   16.1496 C.2     1  UNL1        0.0006
     41 C          67.0717   92.2633   15.1422 C.2     1  UNL1        0.0114
@<TRIPOS>BOND
     1    20    21    1
     2    21    22   ar
     3    22    23   ar
     4    23    24   ar
     5    24    25   ar
     6    25     1    1
     7     1     2   ar
     8     2     3   ar
     9     3     4    1
    10     3     5   ar
    11     5    26    1
    12    26    27    1
    13    27    28    1
    14    28    29    1
    15    28    32    1
    16    32    33    1
    17    33    34    2
    18    34    35    1
    19    35    36    2
    20    36    37    1
    21    37    38    1
    22    38    39    2
    23    39    40    1
    24    40    41    2
    25     5     6   ar
    26     6     7   ar
    27     7    10    1
    28    10    11    2
    29    11    12    1
    30    12    13    2
    31    13    14    1
    32    14    15    2
    33    15    16    1
    34    16    17    1
    35    16    18    2
    36    18    19    1
    37    25    21   ar
    38     7     1   ar
    39    19    10    1
    40    41    33    1
    41    18    13    1
    42    41    36    1
    43     4     8    1
    44     4     9    1
    45    29    30    1
    46    29    31    1
@<TRIPOS>MOLECULE
*****
 41 46 0 0 0
SMALL
GASTEIGER

@<TRIPOS>ATOM
      1 C          62.0657   93.2495    0.6261 C.ar    1  UNL1        0.0853
      2 N          63.1067   92.4437    1.3450 N.ar    1  UNL1       -0.2279
      3 C          62.8145   91.8840    2.7057 C.ar    1  UNL1        0.1596
      4 N          63.8555   91.0781    3.4246 N.pl3   1  UNL1       -0.3402
      5 C          61.4811   92.1302    3.3474 C.ar    1  UNL1        0.1695
      6 C          60.4401   92.9360    2.6285 C.ar    1  UNL1        0.0410
      7 C          60.7324   93.4957    1.2678 C.ar    1  UNL1        0.0173
      8 H          64.7305   90.9165    3.0034 H       1  UNL1        0.1438
      9 H          63.6637   90.7108    4.3176 H       1  UNL1        0.1438
     10 C          59.6914   94.3015    0.5489 C.2     1  UNL1       -0.0161
     11 C          59.7497   95.8001    0.5793 C.2     1  UNL1       -0.0023
     12 C          58.7087   96.6059   -0.1396 C.2     1  UNL1        0.0203
     13 C          57.6093   95.9133   -0.8889 C.2     1  UNL1        0.1004
     14 N          56.4521   96.4385   -1.6857 N.2     1  UNL1       -0.1486
     15 N          55.6784   95.2646   -2.2086 N.2     1  UNL1       -0.1527
     16 C          56.3576   94.0138   -1.7349 C.2     1  UNL1        0.0787
     17 C          55.9202   92.6088   -2.0258 C.3     1  UNL1        0.0537
     18 C          57.5510   94.4148   -0.9193 C.2     1  UNL1        0.0169
     19 C          58.5920   93.6089   -0.2004 C.3     1  UNL1        0.0555
     20 C          63.6752   96.0174   -0.0042 C.3     1  UNL1        0.0725
     21 C          63.0977   95.0815   -1.0242 C.ar    1  UNL1        0.1248
     22 O          63.1586   95.2535   -2.5131 O.2     1  UNL1       -0.4546
     23 C          62.4565   94.0875   -3.1435 C.ar    1  UNL1        0.1792
     24 C          61.9616   93.1949   -2.0443 C.ar    1  UNL1        0.0448
     25 C          62.3579   93.8092   -0.7345 C.ar    1  UNL1        0.0511
     26 O          61.1889   91.5705    4.7081 O.3     1  UNL1       -0.4712
     27 C          60.3243   90.3528    4.8483 C.3     1  UNL1        0.2211
     28 C          59.2814   90.2935    5.9247 C.3     1  UNL1        0.0995
     29 N          57.8314   90.4491    5.5736 N.3     1  UNL1       -0.3190
     30 H          57.2674   90.3828    6.4209 H       1  UNL1        0.1189
     31 H          57.5577   89.7114    4.9245 H       1  UNL1        0.1189
     32 C          59.6885   90.0786    7.3524 C.3     1  UNL1        0.0472
     33 C          59.8365   88.6855    7.8886 C.2     1  UNL1       -0.0005
     34 C          59.1493   87.4605    7.3620 C.2     1  UNL1        0.0942
     35 N          59.5858   86.2908    8.1934 N.2     1  UNL1       -0.2482
     36 C          60.5426   86.7929    9.2338 C.2     1  UNL1        0.0631
     37 C          61.2929   86.0935   10.3283 C.3     1  UNL1        0.0717
     38 C          62.1980   86.8743   11.2345 C.2     1  UNL1       -0.0198
     39 C          62.3530   88.3543   11.0460 C.2     1  UNL1       -0.0042
     40 C          61.6028   89.0536    9.9515 C.2     1  UNL1        0.0006
     41 C          60.6976   88.2729    9.0454 C.2     1  UNL1        0.0114
@<TRIPOS>BOND
     1    20    21    1
     2    21    22   ar
     3    22    23   ar
     4    23    24   ar
     5    24    25   ar
     6    25     1    1
     7     1     2   ar
     8     2     3   ar
     9     3     4    1
    10     3     5   ar
    11     5    26    1
    12    26    27    1
    13    27    28    1
    14    28    29    1
    15    28    32    1
    16    32    33    1
    17    33    34    2
    18    34    35    1
    19    35    36    2
    20    36    37    1
    21    37    38    1
    22    38    39    2
    23    39    40    1
    24    40    41    2
    25     5     6   ar
    26     6     7   ar
    27     7    10    1
    28    10    11    2
    29    11    12    1
    30    12    13    2
    31    13    14    1
    32    14    15    2
    33    15    16    1
    34    16    17    1
    35    16    18    2
    36    18    19    1
    37    25    21   ar
    38     7     1   ar
    39    19    10    1
    40    41    33    1
    41    18    13    1
    42    41    36    1
    43     4     8    1
    44     4     9    1
    45    29    30    1
    46    29    31    1
