@<TRIPOS>MOLECULE
*****
 56 62 0 0 0
SMALL
GASTEIGER

@<TRIPOS>ATOM
      1 N          64.4002   94.2590    1.0639 N.3     1  UNL1       -0.1862
      2 C          65.2008   95.3183    0.3661 C.3     1  UNL1        0.1775
      3 C          64.7896   95.7941   -0.9956 C.2     1  UNL1        0.2452
      4 O          65.5903   96.8535   -1.6934 O.2     1  UNL1       -0.2732
      5 N          63.5777   95.2108   -1.6597 N.am    1  UNL1       -0.2541
      6 C          63.1665   95.6866   -3.0215 C.3     1  UNL1        0.1577
      7 C          61.9546   95.1032   -3.6855 C.2     1  UNL1        0.2445
      8 O          61.5434   95.5791   -5.0473 O.2     1  UNL1       -0.2731
      9 N          61.1539   94.0439   -2.9878 N.am    1  UNL1       -0.2705
     10 C          61.5651   93.5681   -1.6260 C.3     1  UNL1        0.1359
     11 C          62.7771   94.1515   -0.9619 C.3     1  UNL1        0.1908
     12 N          63.1883   93.6756    0.3998 N.am    1  UNL1       -0.1863
     13 C          62.3876   92.6163    1.0976 C.2     1  UNL1        0.3191
     14 O          61.1757   92.0329    0.4335 O.2     1  UNL1       -0.2512
     15 N          62.7988   92.1404    2.4594 N.am    1  UNL1       -0.2836
     16 H          63.5942   92.5234    2.8952 H       1  UNL1        0.1513
     17 C          64.8114   93.7832    2.4257 C.3     1  UNL1        0.1188
     18 C          64.9278   96.2174    3.3260 C.2     1  UNL1       -0.0034
     19 C          65.2909   94.7674    3.4509 C.2     1  UNL1       -0.0071
     20 C          63.9672   96.7459   -3.7192 C.3     1  UNL1        0.0556
     21 C          65.0513   96.3558   -4.6796 C.ar    1  UNL1       -0.0198
     22 C          64.7266   95.5069   -5.8728 C.ar    1  UNL1       -0.0011
     23 C          65.8107   95.1168   -6.8332 C.ar    1  UNL1        0.0363
     24 C          67.2197   95.5757   -6.6005 C.ar    1  UNL1        0.1337
     25 O          68.3039   95.1857   -7.5609 O.3     1  UNL1       -0.5055
     26 C          67.5445   96.4247   -5.4072 C.ar    1  UNL1        0.0363
     27 C          66.4604   96.8148   -4.4468 C.ar    1  UNL1       -0.0011
     28 H          68.1010   94.6553   -8.3063 H       1  UNL1        0.2922
     29 C          59.9421   93.4605   -3.6518 C.3     1  UNL1        0.1217
     30 C          58.6208   93.4683   -2.9416 C.ar    1  UNL1        0.0135
     31 C          58.3194   92.4249   -1.9070 C.ar    1  UNL1       -0.0012
     32 C          56.9982   92.4326   -1.1968 C.ar    1  UNL1       -0.0002
     33 C          55.9785   93.4837   -1.5212 C.ar    1  UNL1        0.0016
     34 C          56.2800   94.5271   -2.5558 C.ar    1  UNL1        0.0214
     35 C          55.4773   95.6796   -3.0825 C.ar    1  UNL1        0.0721
     36 C          56.3024   96.3842   -4.1183 C.ar    1  UNL1        0.0805
     37 N          57.6149   95.6671   -4.2316 N.ar    1  UNL1       -0.3241
     38 C          58.7433   96.0335   -5.1495 C.3     1  UNL1        0.1305
     39 C          57.6011   94.5194   -3.2660 C.ar    1  UNL1        0.0577
     40 C          54.0925   96.0607   -2.6495 C.2     1  UNL1        0.2506
     41 O          53.8079   96.3343   -1.2024 O.2     1  UNL1       -0.2699
     42 N          52.9925   96.1680   -3.6636 N.am    1  UNL1       -0.2746
     43 C          53.3836   95.8741   -5.0816 C.3     1  UNL1        0.0952
     44 C          52.5256   95.8947   -6.3118 C.3     1  UNL1        0.0388
     45 C          51.0647   96.2143   -6.4279 C.3     1  UNL1        0.0739
     46 N          50.1009   96.5923   -5.3424 N.3     1  UNL1       -0.2700
     47 C          48.6916   96.8530   -5.7852 C.3     1  UNL1        0.0897
     48 C          50.3600   96.7440   -3.8728 C.3     1  UNL1        0.0939
     49 C          51.6469   96.5552   -3.1256 C.3     1  UNL1        0.1110
     50 C          61.9982   91.0812    3.1571 C.3     1  UNL1        0.1177
     51 C          60.7351   91.4487    3.8780 C.ar    1  UNL1       -0.0025
     52 C          60.2779   90.6349    5.0522 C.ar    1  UNL1       -0.0026
     53 C          59.0148   91.0024    5.7731 C.ar    1  UNL1       -0.0003
     54 C          58.2091   92.1836    5.3199 C.ar    1  UNL1       -0.0000
     55 C          58.6664   92.9974    4.1457 C.ar    1  UNL1       -0.0003
     56 C          59.9294   92.6300    3.4248 C.ar    1  UNL1       -0.0026
@<TRIPOS>BOND
     1    18    19    2
     2    19    17    1
     3    17     1    1
     4     1     2    1
     5     2     3    1
     6     3     4    2
     7     3     5   am
     8     5     6    1
     9     6    20    1
    10    20    21    1
    11    21    22   ar
    12    22    23   ar
    13    23    24   ar
    14    24    25    1
    15    24    26   ar
    16    26    27   ar
    17     6     7    1
    18     7     8    2
    19     7     9   am
    20     9    29    1
    21    29    30    1
    22    30    31   ar
    23    31    32   ar
    24    32    33   ar
    25    33    34   ar
    26    34    35   ar
    27    35    40    1
    28    40    41    2
    29    40    42   am
    30    42    43    1
    31    43    44    1
    32    44    45    1
    33    45    46    1
    34    46    47    1
    35    46    48    1
    36    48    49    1
    37    35    36   ar
    38    36    37   ar
    39    37    38    1
    40    37    39   ar
    41     9    10    1
    42    11    10    1
    43    11    12    1
    44    12    13   am
    45    13    14    2
    46    13    15   am
    47    15    50    1
    48    50    51    1
    49    51    52   ar
    50    52    53   ar
    51    53    54   ar
    52    54    55   ar
    53    55    56   ar
    54    12     1    1
    55    56    51   ar
    56    11     5    1
    57    27    21   ar
    58    39    30   ar
    59    39    34   ar
    60    49    42    1
    61    25    28    1
    62    15    16    1
