@<TRIPOS>MOLECULE
*****
 40 44 0 0 0
SMALL
GASTEIGER

@<TRIPOS>ATOM
      1 N          63.6531   86.4575   15.7363 N.ar    1  UNL1       -0.1994
      2 N          63.4925   85.4118   14.6730 N.ar    1  UNL1       -0.1460
      3 C          63.1636   86.1069   13.3851 C.ar    1  UNL1        0.1860
      4 C          62.8974   85.5870   12.0035 C.ar    1  UNL1        0.0422
      5 C          62.5885   86.5425   10.8892 C.ar    1  UNL1        0.0605
      6 C          62.5458   88.0179   11.1566 C.ar    1  UNL1        0.2756
      7 O          62.2369   88.9734   10.0424 O.2     1  UNL1       -0.2655
      8 N          62.8120   88.5377   12.5383 N.ar    1  UNL1       -0.2229
      9 N          63.1208   87.5822   13.6525 N.ar    1  UNL1       -0.1765
     10 C          63.4234   87.7989   15.1056 C.ar    1  UNL1        0.3669
     11 O          63.4854   89.1243   15.8052 O.2     1  UNL1       -0.2429
     12 C          62.9401   84.1117   11.7362 C.ar    1  UNL1        0.0032
     13 C          62.0870   83.1782   12.5429 C.ar    1  UNL1        0.0010
     14 C          62.1298   81.7029   12.2755 C.ar    1  UNL1        0.0114
     15 C          63.0256   81.1609   11.2014 C.ar    1  UNL1        0.0577
     16 CL         63.0683   79.6856   10.9340 Cl      1  UNL1       -0.0822
     17 C          63.8788   82.0944   10.3946 C.ar    1  UNL1        0.0114
     18 C          63.8360   83.5697   10.6620 C.ar    1  UNL1        0.0010
     19 C          62.3223   86.0227    9.5076 C.ar    1  UNL1        0.0048
     20 C          63.4511   85.4877    8.6772 C.ar    1  UNL1        0.0008
     21 C          63.1850   84.9678    7.2956 C.ar    1  UNL1        0.0103
     22 C          61.7900   84.9830    6.7443 C.ar    1  UNL1        0.0684
     23 C          60.6612   85.5179    7.5748 C.ar    1  UNL1        0.0103
     24 C          60.9274   86.0378    8.9564 C.ar    1  UNL1        0.0008
     25 C          61.5238   84.4631    5.3627 C.1     1  UNL1        0.1004
     26 N          61.2577   83.9432    3.9811 N.1     1  UNL1       -0.1908
     27 C          62.9634   86.4786   18.2411 C.3     1  UNL1        0.0286
     28 C          63.9851   86.2059   17.1773 C.3     1  UNL1        0.1324
     29 C          62.7692   90.0131   12.8057 C.3     1  UNL1        0.1568
     30 C          63.8019   90.9156   12.1981 C.ar    1  UNL1        0.0158
     31 C          63.6361   91.4037   10.7895 C.ar    1  UNL1        0.0003
     32 C          64.6688   92.3062   10.1821 C.ar    1  UNL1        0.0228
     33 C          65.8673   92.7206   10.9832 C.ar    1  UNL1        0.1522
     34 N          66.0331   92.2325   12.3918 N.ar    1  UNL1       -0.2460
     35 C          65.0005   91.3300   12.9993 C.ar    1  UNL1        0.0572
     36 C          65.1663   90.8419   14.4079 C.3     1  UNL1        0.0518
     37 C          66.9000   93.6231   10.3757 C.3     1  UNL1        0.4348
     38 F          67.9327   94.5256    9.7681 F       1  UNL1       -0.1644
     39 F          66.2940   94.7960   11.0878 F       1  UNL1       -0.1644
     40 F          67.5060   92.4503    9.6636 F       1  UNL1       -0.1644
@<TRIPOS>BOND
     1    27    28    1
     2    28     1    1
     3     1     2   ar
     4     2     3   ar
     5     3     4   ar
     6     4    12    1
     7    12    13   ar
     8    13    14   ar
     9    14    15   ar
    10    15    16    1
    11    15    17   ar
    12    17    18   ar
    13     4     5   ar
    14     5    19    1
    15    19    20   ar
    16    20    21   ar
    17    21    22   ar
    18    22    25    1
    19    25    26    3
    20    22    23   ar
    21    23    24   ar
    22     5     6   ar
    23     6     7    2
    24     6     8   ar
    25     8    29    1
    26    29    30    1
    27    30    31   ar
    28    31    32   ar
    29    32    33   ar
    30    33    37    1
    31    37    38    1
    32    37    39    1
    33    37    40    1
    34    33    34   ar
    35    34    35   ar
    36    35    36    1
    37     8     9   ar
    38     9    10   ar
    39    10    11    2
    40    10     1   ar
    41     9     3   ar
    42    18    12   ar
    43    24    19   ar
    44    35    30   ar
@<TRIPOS>MOLECULE
*****
 40 44 0 0 0
SMALL
GASTEIGER

@<TRIPOS>ATOM
      1 N          63.5986   86.3154   15.7146 N.ar    1  UNL1       -0.1994
      2 N          63.4422   85.2812   14.6393 N.ar    1  UNL1       -0.1460
      3 C          63.1377   85.9915   13.3537 C.ar    1  UNL1        0.1860
      4 C          62.8853   85.4872   11.9638 C.ar    1  UNL1        0.0422
      5 C          62.6010   86.4560   10.8545 C.ar    1  UNL1        0.0605
      6 C          62.5691   87.9292   11.1351 C.ar    1  UNL1        0.2756
      7 O          62.2848   88.8980   10.0259 O.2     1  UNL1       -0.2655
      8 N          62.8215   88.4335   12.5251 N.ar    1  UNL1       -0.2229
      9 N          63.1058   87.4647   13.6344 N.ar    1  UNL1       -0.1765
     10 C          63.3906   87.6648   15.0934 C.ar    1  UNL1        0.3669
     11 O          63.4560   88.9830   15.8062 O.2     1  UNL1       -0.2429
     12 C          62.9172   84.0140   11.6832 C.ar    1  UNL1        0.0032
     13 C          62.0744   83.0771   12.4967 C.ar    1  UNL1        0.0010
     14 C          62.1063   81.6039   12.2160 C.ar    1  UNL1        0.0114
     15 C          62.9810   81.0677   11.1219 C.ar    1  UNL1        0.0577
     16 CL         63.0129   79.5945   10.8412 Cl      1  UNL1       -0.0822
     17 C          63.8239   82.0046   10.3083 C.ar    1  UNL1        0.0114
     18 C          63.7920   83.4777   10.5890 C.ar    1  UNL1        0.0010
     19 C          62.3486   85.9517    9.4646 C.ar    1  UNL1        0.0048
     20 C          60.9597   85.9760    8.8985 C.ar    1  UNL1        0.0008
     21 C          60.7074   85.4717    7.5086 C.ar    1  UNL1        0.0103
     22 C          61.8439   84.9430    6.6847 C.ar    1  UNL1        0.0684
     23 C          63.2328   84.9186    7.2507 C.ar    1  UNL1        0.0103
     24 C          63.4851   85.4230    8.6407 C.ar    1  UNL1        0.0008
     25 C          61.5915   84.4386    5.2948 C.1     1  UNL1        0.1004
     26 N          61.3392   83.9343    3.9048 N.1     1  UNL1       -0.1908
     27 C          62.9444   86.4757   18.2238 C.3     1  UNL1        0.0286
     28 C          63.9084   86.0472   17.1575 C.3     1  UNL1        0.1324
     29 C          62.7896   89.9067   12.8058 C.3     1  UNL1        0.1568
     30 C          64.0523   90.6273   13.1750 C.ar    1  UNL1        0.0158
     31 C          64.6663   90.4196   14.5277 C.ar    1  UNL1        0.0003
     32 C          65.9290   91.1403   14.8968 C.ar    1  UNL1        0.0228
     33 C          66.5776   92.0687   13.9132 C.ar    1  UNL1        0.1522
     34 N          65.9636   92.2764   12.5605 N.ar    1  UNL1       -0.2460
     35 C          64.7010   91.5557   12.1914 C.ar    1  UNL1        0.0572
     36 C          64.0869   91.7634   10.8387 C.3     1  UNL1        0.0518
     37 C          67.8403   92.7893   14.2824 C.3     1  UNL1        0.4348
     38 F          69.1030   93.5099   14.6516 F       1  UNL1       -0.1644
     39 F          67.0328   93.8606   14.9534 F       1  UNL1       -0.1644
     40 F          68.6479   91.7181   13.6114 F       1  UNL1       -0.1644
@<TRIPOS>BOND
     1    27    28    1
     2    28     1    1
     3     1     2   ar
     4     2     3   ar
     5     3     4   ar
     6     4    12    1
     7    12    13   ar
     8    13    14   ar
     9    14    15   ar
    10    15    16    1
    11    15    17   ar
    12    17    18   ar
    13     4     5   ar
    14     5    19    1
    15    19    20   ar
    16    20    21   ar
    17    21    22   ar
    18    22    25    1
    19    25    26    3
    20    22    23   ar
    21    23    24   ar
    22     5     6   ar
    23     6     7    2
    24     6     8   ar
    25     8    29    1
    26    29    30    1
    27    30    31   ar
    28    31    32   ar
    29    32    33   ar
    30    33    37    1
    31    37    38    1
    32    37    39    1
    33    37    40    1
    34    33    34   ar
    35    34    35   ar
    36    35    36    1
    37     8     9   ar
    38     9    10   ar
    39    10    11    2
    40    10     1   ar
    41     9     3   ar
    42    18    12   ar
    43    24    19   ar
    44    35    30   ar
@<TRIPOS>MOLECULE
*****
 40 44 0 0 0
SMALL
GASTEIGER

@<TRIPOS>ATOM
      1 N          61.7965   90.2060    9.8069 N.ar    1  UNL1       -0.1994
      2 N          62.8699   91.2343   10.0079 N.ar    1  UNL1       -0.1460
      3 C          63.5916   90.9082   11.2818 C.ar    1  UNL1        0.1860
      4 C          64.7389   91.5722   11.9837 C.ar    1  UNL1        0.0422
      5 C          65.2589   91.0063   13.2719 C.ar    1  UNL1        0.0605
      6 C          64.6315   89.7764   13.8582 C.ar    1  UNL1        0.2756
      7 O          65.1515   89.2106   15.1464 O.2     1  UNL1       -0.2655
      8 N          63.4841   89.1124   13.1563 N.ar    1  UNL1       -0.2229
      9 N          62.9642   89.6783   11.8681 N.ar    1  UNL1       -0.1765
     10 C          61.8548   89.2444   10.9566 C.ar    1  UNL1        0.3669
     11 O          60.9606   88.0571   11.1592 O.2     1  UNL1       -0.2429
     12 C          65.3663   92.8021   11.3973 C.ar    1  UNL1        0.0032
     13 C          65.4368   94.0651   12.2034 C.ar    1  UNL1        0.0010
     14 C          66.0642   95.2950   11.6171 C.ar    1  UNL1        0.0114
     15 C          66.6211   95.2618   10.2247 C.ar    1  UNL1        0.0577
     16 CL         67.2485   96.4917    9.6384 Cl      1  UNL1       -0.0822
     17 C          66.5507   93.9987    9.4186 C.ar    1  UNL1        0.0114
     18 C          65.9233   92.7689   10.0049 C.ar    1  UNL1        0.0010
     19 C          66.4063   91.6703   13.9737 C.ar    1  UNL1        0.0048
     20 C          66.1758   92.3980   15.2650 C.ar    1  UNL1        0.0008
     21 C          67.3231   93.0621   15.9668 C.ar    1  UNL1        0.0103
     22 C          68.7011   92.9984   15.3774 C.ar    1  UNL1        0.0684
     23 C          68.9316   92.2707   14.0862 C.ar    1  UNL1        0.0103
     24 C          67.7841   91.6067   13.3843 C.ar    1  UNL1        0.0008
     25 C          69.8484   93.6624   16.0793 C.1     1  UNL1        0.1004
     26 N          70.9959   94.3265   16.7811 N.1     1  UNL1       -0.1908
     27 C          60.1316   88.8650    8.3305 C.3     1  UNL1        0.0286
     28 C          60.8339   90.1493    8.6579 C.3     1  UNL1        0.1324
     29 C          62.8567   87.8825   13.7426 C.3     1  UNL1        0.1568
     30 C          63.0704   86.5483   13.0912 C.ar    1  UNL1        0.0158
     31 C          62.4167   86.2424   11.7763 C.ar    1  UNL1        0.0003
     32 C          62.6304   84.9082   11.1250 C.ar    1  UNL1        0.0228
     33 C          63.4977   83.8799   11.7886 C.ar    1  UNL1        0.1522
     34 N          64.1514   84.1858   13.1036 N.ar    1  UNL1       -0.2460
     35 C          63.9377   85.5200   13.7549 C.ar    1  UNL1        0.0572
     36 C          64.5913   85.8260   15.0699 C.3     1  UNL1        0.0518
     37 C          63.7114   82.5457   11.1372 C.3     1  UNL1        0.4348
     38 F          63.9250   81.2115   10.4859 F       1  UNL1       -0.1644
     39 F          64.8741   83.1052   10.3725 F       1  UNL1       -0.1644
     40 F          62.5486   81.9862   11.9020 F       1  UNL1       -0.1644
@<TRIPOS>BOND
     1    27    28    1
     2    28     1    1
     3     1     2   ar
     4     2     3   ar
     5     3     4   ar
     6     4    12    1
     7    12    13   ar
     8    13    14   ar
     9    14    15   ar
    10    15    16    1
    11    15    17   ar
    12    17    18   ar
    13     4     5   ar
    14     5    19    1
    15    19    20   ar
    16    20    21   ar
    17    21    22   ar
    18    22    25    1
    19    25    26    3
    20    22    23   ar
    21    23    24   ar
    22     5     6   ar
    23     6     7    2
    24     6     8   ar
    25     8    29    1
    26    29    30    1
    27    30    31   ar
    28    31    32   ar
    29    32    33   ar
    30    33    37    1
    31    37    38    1
    32    37    39    1
    33    37    40    1
    34    33    34   ar
    35    34    35   ar
    36    35    36    1
    37     8     9   ar
    38     9    10   ar
    39    10    11    2
    40    10     1   ar
    41     9     3   ar
    42    18    12   ar
    43    24    19   ar
    44    35    30   ar
@<TRIPOS>MOLECULE
*****
 40 44 0 0 0
SMALL
GASTEIGER

@<TRIPOS>ATOM
      1 N          63.8705   85.0714   13.0180 N.ar    1  UNL1       -0.1994
      2 N          63.3357   85.0833   11.6166 N.ar    1  UNL1       -0.1460
      3 C          62.6781   86.4110   11.3827 C.ar    1  UNL1        0.1860
      4 C          61.9790   86.9880   10.1876 C.ar    1  UNL1        0.0422
      5 C          61.4082   88.3739   10.2493 C.ar    1  UNL1        0.0605
      6 C          61.5366   89.1826   11.5061 C.ar    1  UNL1        0.2756
      7 O          60.9659   90.5684   11.5678 O.2     1  UNL1       -0.2655
      8 N          62.2358   88.6055   12.7011 N.ar    1  UNL1       -0.2229
      9 N          62.8065   87.2197   12.6394 N.ar    1  UNL1       -0.1765
     10 C          63.5435   86.3918   13.6501 C.ar    1  UNL1        0.3669
     11 O          63.8921   86.8107   15.0475 O.2     1  UNL1       -0.2429
     12 C          61.8505   86.1793    8.9308 C.ar    1  UNL1        0.0032
     13 C          63.0719   85.5894    8.2905 C.ar    1  UNL1        0.0010
     14 C          62.9435   84.7807    7.0337 C.ar    1  UNL1        0.0114
     15 C          61.5937   84.5619    6.4173 C.ar    1  UNL1        0.0577
     16 CL         61.4653   83.7531    5.1605 Cl      1  UNL1       -0.0822
     17 C          60.3722   85.1518    7.0577 C.ar    1  UNL1        0.0114
     18 C          60.5006   85.9605    8.3144 C.ar    1  UNL1        0.0010
     19 C          60.7091   88.9509    9.0542 C.ar    1  UNL1        0.0048
     20 C          61.3159   90.1072    8.3162 C.ar    1  UNL1        0.0008
     21 C          60.6168   90.6843    7.1211 C.ar    1  UNL1        0.0103
     22 C          59.3108   90.1051    6.6641 C.ar    1  UNL1        0.0684
     23 C          58.7039   88.9488    7.4022 C.ar    1  UNL1        0.0103
     24 C          59.4031   88.3717    8.5973 C.ar    1  UNL1        0.0008
     25 C          58.6116   90.6821    5.4690 C.1     1  UNL1        0.1004
     26 N          57.9125   91.2592    4.2739 N.1     1  UNL1       -0.1908
     27 C          63.8829   83.0269   14.6211 C.3     1  UNL1        0.0286
     28 C          64.6037   83.9381   13.6723 C.3     1  UNL1        0.1324
     29 C          62.3642   89.4142   13.9579 C.3     1  UNL1        0.1568
     30 C          63.5243   90.3489   14.1331 C.ar    1  UNL1        0.0158
     31 C          64.2110   90.9256   12.9307 C.ar    1  UNL1        0.0003
     32 C          65.3711   91.8602   13.1058 C.ar    1  UNL1        0.0228
     33 C          65.8444   92.2181   14.4835 C.ar    1  UNL1        0.1522
     34 N          65.1578   91.6414   15.6859 N.ar    1  UNL1       -0.2460
     35 C          63.9977   90.7068   15.5107 C.ar    1  UNL1        0.0572
     36 C          63.3110   90.1300   16.7131 C.3     1  UNL1        0.0518
     37 C          67.0046   93.1528   14.6586 C.3     1  UNL1        0.4348
     38 F          68.1646   94.0874   14.8337 F       1  UNL1       -0.1644
     39 F          67.6785   92.1498   15.5472 F       1  UNL1       -0.1644
     40 F          66.3306   94.1557   13.7700 F       1  UNL1       -0.1644
@<TRIPOS>BOND
     1    27    28    1
     2    28     1    1
     3     1     2   ar
     4     2     3   ar
     5     3     4   ar
     6     4    12    1
     7    12    13   ar
     8    13    14   ar
     9    14    15   ar
    10    15    16    1
    11    15    17   ar
    12    17    18   ar
    13     4     5   ar
    14     5    19    1
    15    19    20   ar
    16    20    21   ar
    17    21    22   ar
    18    22    25    1
    19    25    26    3
    20    22    23   ar
    21    23    24   ar
    22     5     6   ar
    23     6     7    2
    24     6     8   ar
    25     8    29    1
    26    29    30    1
    27    30    31   ar
    28    31    32   ar
    29    32    33   ar
    30    33    37    1
    31    37    38    1
    32    37    39    1
    33    37    40    1
    34    33    34   ar
    35    34    35   ar
    36    35    36    1
    37     8     9   ar
    38     9    10   ar
    39    10    11    2
    40    10     1   ar
    41     9     3   ar
    42    18    12   ar
    43    24    19   ar
    44    35    30   ar
