@<TRIPOS>MOLECULE
*****
 65 72 0 0 0
SMALL
GASTEIGER

@<TRIPOS>ATOM
      1 N          65.7062   89.9283   13.9607 N.3     1  UNL1       -0.1862
      2 C          66.1299   88.7607   14.8017 C.3     1  UNL1        0.1775
      3 C          65.3258   87.4946   14.7868 C.2     1  UNL1        0.2452
      4 O          65.7495   86.3270   15.6279 O.2     1  UNL1       -0.2732
      5 N          64.0980   87.3959   13.9308 N.am    1  UNL1       -0.2541
      6 C          63.2939   86.1297   13.9159 C.3     1  UNL1        0.1577
      7 C          62.0661   86.0311   13.0599 C.2     1  UNL1        0.2445
      8 O          61.2619   84.7649   13.0450 O.2     1  UNL1       -0.2731
      9 N          61.6423   87.1987   12.2188 N.am    1  UNL1       -0.2705
     10 C          62.4464   88.4648   12.2338 C.3     1  UNL1        0.1359
     11 C          63.6743   88.5634   13.0898 C.3     1  UNL1        0.1908
     12 N          64.4784   89.8296   13.1048 N.am    1  UNL1       -0.1863
     13 C          64.0546   90.9972   12.2637 C.2     1  UNL1        0.3191
     14 O          62.8268   90.8985   11.4078 O.2     1  UNL1       -0.2512
     15 N          64.8587   92.2633   12.2787 N.am    1  UNL1       -0.2836
     16 H          65.6646   92.3281   12.8405 H       1  UNL1        0.1513
     17 C          66.5103   91.1944   13.9757 C.3     1  UNL1        0.1188
     18 C          66.9853   92.7513   16.0006 C.2     1  UNL1       -0.0034
     19 C          67.3339   91.5457   15.1791 C.2     1  UNL1       -0.0071
     20 C          63.7176   84.9622   14.7569 C.3     1  UNL1        0.0556
     21 C          63.4233   83.5637   14.3013 C.ar    1  UNL1       -0.0198
     22 C          62.2669   82.8110   14.8897 C.ar    1  UNL1       -0.0011
     23 C          61.9726   81.4125   14.4342 C.ar    1  UNL1        0.0363
     24 C          62.8346   80.7667   13.3903 C.ar    1  UNL1        0.1337
     25 O          62.5403   79.3681   12.9347 O.3     1  UNL1       -0.5055
     26 C          63.9911   81.5194   12.8018 C.ar    1  UNL1        0.0363
     27 C          64.2854   82.9179   13.2574 C.ar    1  UNL1       -0.0011
     28 H          61.8180   78.8979   13.3023 H       1  UNL1        0.2922
     29 C          60.4145   87.1000   11.3629 C.3     1  UNL1        0.1217
     30 C          60.5340   87.1687    9.8692 C.ar    1  UNL1        0.0135
     31 C          60.9914   85.9666    9.0973 C.ar    1  UNL1       -0.0012
     32 C          61.1109   86.0352    7.6037 C.ar    1  UNL1       -0.0002
     33 C          60.7731   87.3059    6.8819 C.ar    1  UNL1        0.0016
     34 C          60.3157   88.5080    7.6538 C.ar    1  UNL1        0.0214
     35 C          59.9159   89.8871    7.2197 C.ar    1  UNL1        0.0722
     36 C          59.5494   90.6707    8.4450 C.ar    1  UNL1        0.0805
     37 N          59.7225   89.7760    9.6364 N.ar    1  UNL1       -0.3241
     38 C          59.4670   90.1519   11.0658 C.3     1  UNL1        0.1305
     39 C          60.1961   88.4394    9.1474 C.ar    1  UNL1        0.0577
     40 C          59.8877   90.3936    5.8080 C.2     1  UNL1        0.2510
     41 O          58.7183   90.0807    4.9221 O.2     1  UNL1       -0.2698
     42 N          61.0289   91.2129    5.2822 N.am    1  UNL1       -0.2791
     43 H          61.7963   91.4182    5.8636 H       1  UNL1        0.1552
     44 C          61.0007   91.7194    3.8706 C.ar    1  UNL1        0.0701
     45 C          62.2061   91.5594    2.9923 C.ar    1  UNL1        0.0191
     46 C          62.1781   92.0658    1.5807 C.ar    1  UNL1        0.0356
     47 C          60.9446   92.7323    1.0474 C.ar    1  UNL1        0.1319
     48 N          59.7392   92.8923    1.9257 N.ar    1  UNL1       -0.2279
     49 C          59.7673   92.3858    3.3373 C.ar    1  UNL1        0.1149
     50 N          60.9165   93.2388   -0.3642 N.pl3   1  UNL1       -0.2897
     51 C          59.6438   93.1823   -1.1561 C.3     1  UNL1        0.1137
     52 C          59.6155   93.6888   -2.5677 C.3     1  UNL1        0.1149
     53 N          60.8600   94.2517   -3.1876 N.am    1  UNL1       -0.2760
     54 C          60.8319   94.7582   -4.5991 C.2     1  UNL1        0.2262
     55 C          59.5592   94.7017   -5.3909 C.3     1  UNL1        0.0948
     56 O          62.0764   95.3212   -5.2190 O.2     1  UNL1       -0.2749
     57 C          62.1328   94.3082   -2.3958 C.3     1  UNL1        0.1149
     58 C          62.1610   93.8017   -0.9841 C.3     1  UNL1        0.1137
     59 C          64.4351   93.4308   11.4377 C.3     1  UNL1        0.1177
     60 C          65.4467   94.1628   10.6065 C.ar    1  UNL1       -0.0025
     61 C          66.6065   93.4209   10.0112 C.ar    1  UNL1       -0.0026
     62 C          67.6181   94.1529    9.1800 C.ar    1  UNL1       -0.0003
     63 C          67.4699   95.6268    8.9442 C.ar    1  UNL1       -0.0000
     64 C          66.3101   96.3688    9.5395 C.ar    1  UNL1       -0.0003
     65 C          65.2984   95.6368   10.3706 C.ar    1  UNL1       -0.0026
@<TRIPOS>BOND
     1    18    19    2
     2    19    17    1
     3    17     1    1
     4     1     2    1
     5     2     3    1
     6     3     4    2
     7     3     5   am
     8     5     6    1
     9     6    20    1
    10    20    21    1
    11    21    22   ar
    12    22    23   ar
    13    23    24   ar
    14    24    25    1
    15    24    26   ar
    16    26    27   ar
    17     6     7    1
    18     7     8    2
    19     7     9   am
    20     9    29    1
    21    29    30    1
    22    30    31   ar
    23    31    32   ar
    24    32    33   ar
    25    33    34   ar
    26    34    35   ar
    27    35    40    1
    28    40    41    2
    29    40    42   am
    30    42    44    1
    31    44    45   ar
    32    45    46   ar
    33    46    47   ar
    34    47    50    1
    35    50    51    1
    36    51    52    1
    37    52    53    1
    38    53    54   am
    39    54    55    1
    40    54    56    2
    41    53    57    1
    42    57    58    1
    43    47    48   ar
    44    48    49   ar
    45    35    36   ar
    46    36    37   ar
    47    37    38    1
    48    37    39   ar
    49     9    10    1
    50    10    11    1
    51    11    12    1
    52    12    13   am
    53    13    14    2
    54    13    15   am
    55    15    59    1
    56    59    60    1
    57    60    61   ar
    58    61    62   ar
    59    62    63   ar
    60    63    64   ar
    61    64    65   ar
    62    12     1    1
    63    65    60   ar
    64    11     5    1
    65    27    21   ar
    66    39    30   ar
    67    39    34   ar
    68    49    44   ar
    69    58    50    1
    70    25    28    1
    71    42    43    1
    72    15    16    1
