@<TRIPOS>MOLECULE
*****
 27 30 0 0 0
SMALL
GASTEIGER

@<TRIPOS>ATOM
      1 C          63.2169   90.7423   11.0698 C.3     1  UNL1        0.1747
      2 C          63.7362   90.4601   12.4484 C.3     1  UNL1        0.0407
      3 C          64.8893   91.2505   12.9919 C.3     1  UNL1        0.0412
      4 C          65.4086   90.9683   14.3706 C.3     1  UNL1        0.0672
      5 S          66.5617   91.7588   14.9141 S.3     1  UNL1       -0.0807
      6 C          67.1956   92.8315   14.0790 C.2     1  UNL1        0.1482
      7 N          68.3488   93.6220   14.6225 N.pl3   1  UNL1       -0.3380
      8 N          66.6764   93.1137   12.7003 N.2     1  UNL1       -0.2484
      9 C          65.5232   92.3232   12.1568 C.3     1  UNL1        0.1352
     10 C          65.0040   92.6055   10.7781 C.3     1  UNL1        0.1691
     11 O          63.8508   91.8150   10.2346 O.3     1  UNL1       -0.3462
     12 H          68.6896   93.4367   15.5274 H       1  UNL1        0.1442
     13 H          68.7649   94.3260   14.0744 H       1  UNL1        0.1442
     14 C          66.1571   93.3960   11.3216 C.ar    1  UNL1        0.0278
     15 C          65.7541   94.8287   11.5089 C.ar    1  UNL1        0.0021
     16 C          66.3880   95.9014   10.6738 C.ar    1  UNL1        0.0295
     17 C          67.4249   95.5414    9.6513 C.ar    1  UNL1        0.1424
     18 F          68.0588   96.6141    8.8162 F       1  UNL1       -0.2041
     19 C          67.8278   94.1087    9.4641 C.ar    1  UNL1        0.0590
     20 C          67.1939   93.0360   10.2992 C.ar    1  UNL1        0.1402
     21 F          67.5969   91.6034   10.1120 F       1  UNL1       -0.2044
     22 C          60.3491   86.8277    8.9884 C.3     1  UNL1        0.0557
     23 C          60.7456   88.1524    9.5695 C.ar    1  UNL1        0.1008
     24 C          62.1243   88.5440   10.0121 C.ar    1  UNL1        0.0561
     25 C          62.0638   89.9518   10.5262 C.ar    1  UNL1        0.1809
     26 O          60.6477   90.4304   10.4014 O.2     1  UNL1       -0.3556
     27 N          59.8330   89.3184    9.8101 N.ar    1  UNL1       -0.0817
@<TRIPOS>BOND
     1    22    23    1
     2    23    24   ar
     3    24    25   ar
     4     1    25    1
     5     1     2    1
     6     3     2    1
     7     3     4    1
     8     4     5    1
     9     5     6    1
    10     6     7    1
    11     6     8    2
    12     8     9    1
    13     9    14    1
    14    14    15   ar
    15    15    16   ar
    16    16    17   ar
    17    17    18    1
    18    17    19   ar
    19    19    20   ar
    20    20    21    1
    21     9    10    1
    22    10    11    1
    23    25    26   ar
    24    26    27   ar
    25    27    23   ar
    26    11     1    1
    27     9     3    1
    28    20    14   ar
    29     7    12    1
    30     7    13    1
@<TRIPOS>MOLECULE
*****
 27 30 0 0 0
SMALL
GASTEIGER

@<TRIPOS>ATOM
      1 C          63.0240   89.1088   12.6777 C.3     1  UNL1        0.1747
      2 C          62.0123   89.5809   11.6760 C.3     1  UNL1        0.0407
      3 C          61.4553   88.6237   10.6644 C.3     1  UNL1        0.0412
      4 C          60.4435   89.0958    9.6627 C.3     1  UNL1        0.0672
      5 S          59.8865   88.1386    8.6510 S.3     1  UNL1       -0.0807
      6 C          60.3414   86.7092    8.6410 C.2     1  UNL1        0.1482
      7 N          59.7844   85.7520    7.6293 N.pl3   1  UNL1       -0.3380
      8 N          61.3532   86.2371    9.6427 N.2     1  UNL1       -0.2484
      9 C          61.9102   87.1944   10.6544 C.3     1  UNL1        0.1352
     10 C          62.9220   86.7223   11.6560 C.3     1  UNL1        0.1691
     11 O          63.4789   87.6795   12.6677 O.3     1  UNL1       -0.3462
     12 H          59.1203   86.0618    6.9719 H       1  UNL1        0.1442
     13 H          60.0829   84.8138    7.6227 H       1  UNL1        0.1442
     14 C          62.3650   85.7650   10.6444 C.ar    1  UNL1        0.0278
     15 C          62.0296   84.8631   11.7951 C.ar    1  UNL1        0.0021
     16 C          62.4844   83.4338   11.7851 C.ar    1  UNL1        0.0295
     17 C          63.2748   82.9064   10.6244 C.ar    1  UNL1        0.1424
     18 F          63.7296   81.4770   10.6144 F       1  UNL1       -0.2041
     19 C          63.6102   83.8082    9.4737 C.ar    1  UNL1        0.0590
     20 C          63.1553   85.2376    9.4837 C.ar    1  UNL1        0.1402
     21 F          63.4908   86.1395    8.3331 F       1  UNL1       -0.2044
     22 C          66.1772   92.5830   15.1003 C.3     1  UNL1        0.0557
     23 C          65.0304   91.6630   14.8029 C.ar    1  UNL1        0.1008
     24 C          64.8666   90.8292   13.5669 C.ar    1  UNL1        0.0561
     25 C          63.5810   90.0661   13.6894 C.ar    1  UNL1        0.1809
     26 O          62.9503   90.4283   15.0012 O.2     1  UNL1       -0.3556
     27 N          63.8460   91.4152   15.6894 N.ar    1  UNL1       -0.0817
@<TRIPOS>BOND
     1    22    23    1
     2    23    24   ar
     3    24    25   ar
     4     1    25    1
     5     1     2    1
     6     3     2    1
     7     3     4    1
     8     4     5    1
     9     5     6    1
    10     6     7    1
    11     6     8    2
    12     8     9    1
    13     9    14    1
    14    14    15   ar
    15    15    16   ar
    16    16    17   ar
    17    17    18    1
    18    17    19   ar
    19    19    20   ar
    20    20    21    1
    21     9    10    1
    22    10    11    1
    23    25    26   ar
    24    26    27   ar
    25    27    23   ar
    26    11     1    1
    27     9     3    1
    28    20    14   ar
    29     7    12    1
    30     7    13    1
@<TRIPOS>MOLECULE
*****
 27 30 0 0 0
SMALL
GASTEIGER

@<TRIPOS>ATOM
      1 C          65.6312   92.5890   11.3110 C.3     1  UNL1        0.1747
      2 C          65.7612   92.5428   12.8046 C.3     1  UNL1        0.0407
      3 C          64.8295   91.6889   13.6125 C.3     1  UNL1        0.0412
      4 C          64.9595   91.6426   15.1062 C.3     1  UNL1        0.0672
      5 S          64.0277   90.7887   15.9140 S.3     1  UNL1       -0.0807
      6 C          62.9659   89.9810   15.2282 C.2     1  UNL1        0.1482
      7 N          62.0341   89.1271   16.0361 N.pl3   1  UNL1       -0.3380
      8 N          62.8359   90.0273   13.7346 N.2     1  UNL1       -0.2484
      9 C          63.7677   90.8812   12.9267 C.3     1  UNL1        0.1352
     10 C          63.6377   90.9275   11.4331 C.3     1  UNL1        0.1691
     11 O          64.5694   91.7814   10.6253 O.3     1  UNL1       -0.3462
     12 H          62.1195   89.0968   17.0164 H       1  UNL1        0.1442
     13 H          61.3372   88.5970   15.5860 H       1  UNL1        0.1442
     14 C          62.7059   90.0736   12.2409 C.ar    1  UNL1        0.0278
     15 C          61.5019   90.7554   11.6615 C.ar    1  UNL1        0.0021
     16 C          60.4401   89.9478   10.9758 C.ar    1  UNL1        0.0295
     17 C          60.5823   88.4583   10.8693 C.ar    1  UNL1        0.1424
     18 F          59.5205   87.6507   10.1835 F       1  UNL1       -0.2041
     19 C          61.7863   87.7765   11.4486 C.ar    1  UNL1        0.0590
     20 C          62.8480   88.5842   12.1344 C.ar    1  UNL1        0.1402
     21 F          64.0520   87.9024   12.7137 F       1  UNL1       -0.2044
     22 C          67.5722   96.5618    8.4247 C.3     1  UNL1        0.0557
     23 C          67.4552   95.2691    9.1764 C.ar    1  UNL1        0.1008
     24 C          66.2343   94.7734    9.8932 C.ar    1  UNL1        0.0561
     25 C          66.5630   93.4430   10.5031 C.ar    1  UNL1        0.1809
     26 O          67.9871   93.1164   10.1634 O.2     1  UNL1       -0.3556
     27 N          68.5385   94.2450    9.3434 N.ar    1  UNL1       -0.0817
@<TRIPOS>BOND
     1    22    23    1
     2    23    24   ar
     3    24    25   ar
     4     1    25    1
     5     1     2    1
     6     3     2    1
     7     3     4    1
     8     4     5    1
     9     5     6    1
    10     6     7    1
    11     6     8    2
    12     8     9    1
    13     9    14    1
    14    14    15   ar
    15    15    16   ar
    16    16    17   ar
    17    17    18    1
    18    17    19   ar
    19    19    20   ar
    20    20    21    1
    21     9    10    1
    22    10    11    1
    23    25    26   ar
    24    26    27   ar
    25    27    23   ar
    26    11     1    1
    27     9     3    1
    28    20    14   ar
    29     7    12    1
    30     7    13    1
@<TRIPOS>MOLECULE
*****
 27 30 0 0 0
SMALL
GASTEIGER

@<TRIPOS>ATOM
      1 C          63.2147   90.5481   11.5964 C.3     1  UNL1        0.1747
      2 C          63.7889   90.3795   12.9718 C.3     1  UNL1        0.0407
      3 C          65.0502   91.0972   13.3510 C.3     1  UNL1        0.0412
      4 C          65.6245   90.9287   14.7265 C.3     1  UNL1        0.0672
      5 S          66.8858   91.6463   15.1058 S.3     1  UNL1       -0.0807
      6 C          67.5730   92.5326   14.1096 C.2     1  UNL1        0.1482
      7 N          68.8344   93.2503   14.4889 N.pl3   1  UNL1       -0.3380
      8 N          66.9988   92.7012   12.7342 N.2     1  UNL1       -0.2484
      9 C          65.7374   91.9835   12.3549 C.3     1  UNL1        0.1352
     10 C          65.1632   92.1521   10.9794 C.3     1  UNL1        0.1691
     11 O          63.9018   91.4344   10.6002 O.3     1  UNL1       -0.3462
     12 H          69.2112   93.1397   15.3917 H       1  UNL1        0.1442
     13 H          69.2854   93.8320   13.8351 H       1  UNL1        0.1442
     14 C          66.4245   92.8698   11.3587 C.ar    1  UNL1        0.0278
     15 C          67.2712   92.2669   10.2771 C.ar    1  UNL1        0.0021
     16 C          67.9583   93.1532    9.2809 C.ar    1  UNL1        0.0295
     17 C          67.7988   94.6423    9.3664 C.ar    1  UNL1        0.1424
     18 F          68.4860   95.5286    8.3702 F       1  UNL1       -0.2041
     19 C          66.9522   95.2450   10.4480 C.ar    1  UNL1        0.0590
     20 C          66.2651   94.3588   11.4441 C.ar    1  UNL1        0.1402
     21 F          65.4185   94.9615   12.5258 F       1  UNL1       -0.2044
     22 C          59.4841   88.1020    8.7713 C.3     1  UNL1        0.0557
     23 C          60.2385   88.7061    9.9185 C.ar    1  UNL1        0.1008
     24 C          61.5780   89.3763    9.8375 C.ar    1  UNL1        0.0561
     25 C          61.9533   89.8304   11.2170 C.ar    1  UNL1        0.1809
     26 O          60.8457   89.4409   12.1506 O.2     1  UNL1       -0.3556
     27 N          59.7859   88.7460   11.3481 N.ar    1  UNL1       -0.0817
@<TRIPOS>BOND
     1    22    23    1
     2    23    24   ar
     3    24    25   ar
     4     1    25    1
     5     1     2    1
     6     3     2    1
     7     3     4    1
     8     4     5    1
     9     5     6    1
    10     6     7    1
    11     6     8    2
    12     8     9    1
    13     9    14    1
    14    14    15   ar
    15    15    16   ar
    16    16    17   ar
    17    17    18    1
    18    17    19   ar
    19    19    20   ar
    20    20    21    1
    21     9    10    1
    22    10    11    1
    23    25    26   ar
    24    26    27   ar
    25    27    23   ar
    26    11     1    1
    27     9     3    1
    28    20    14   ar
    29     7    12    1
    30     7    13    1
@<TRIPOS>MOLECULE
*****
 27 30 0 0 0
SMALL
GASTEIGER

@<TRIPOS>ATOM
      1 C          61.2864   86.7783   10.2859 C.3     1  UNL1        0.1747
      2 C          61.9998   87.7871   11.1363 C.3     1  UNL1        0.0407
      3 C          62.8532   87.3321   12.2829 C.3     1  UNL1        0.0412
      4 C          63.5667   88.3409   13.1334 C.3     1  UNL1        0.0672
      5 S          64.4201   87.8858   14.2800 S.3     1  UNL1       -0.0807
      6 C          64.5601   86.4220   14.5760 C.2     1  UNL1        0.1482
      7 N          65.4136   85.9670   15.7226 N.pl3   1  UNL1       -0.3380
      8 N          63.8467   85.4132   13.7255 N.2     1  UNL1       -0.2484
      9 C          62.9932   85.8683   12.5789 C.3     1  UNL1        0.1352
     10 C          62.2798   84.8595   11.7284 C.3     1  UNL1        0.1691
     11 O          61.4264   85.3145   10.5819 O.3     1  UNL1       -0.3462
     12 H          65.8818   86.6291   16.2808 H       1  UNL1        0.1442
     13 H          65.5055   85.0063   15.9169 H       1  UNL1        0.1442
     14 C          63.1333   84.4044   12.8750 C.ar    1  UNL1        0.0278
     15 C          64.0472   83.5549   12.0424 C.ar    1  UNL1        0.0021
     16 C          64.1872   82.0911   12.3385 C.ar    1  UNL1        0.0295
     17 C          63.4133   81.4768   13.4671 C.ar    1  UNL1        0.1424
     18 F          63.5533   80.0130   13.7631 F       1  UNL1       -0.2041
     19 C          62.4994   82.3263   14.2996 C.ar    1  UNL1        0.0590
     20 C          62.3594   83.7901   14.0035 C.ar    1  UNL1        0.1402
     21 F          61.4455   84.6396   14.8360 F       1  UNL1       -0.2044
     22 C          59.1295   89.7741    6.5104 C.3     1  UNL1        0.0557
     23 C          59.4415   88.6103    7.4038 C.ar    1  UNL1        0.1008
     24 C          60.4521   88.5958    8.5122 C.ar    1  UNL1        0.0561
     25 C          60.4329   87.2333    9.1392 C.ar    1  UNL1        0.1809
     26 O          59.4105   86.4057    8.4184 O.2     1  UNL1       -0.3556
     27 N          58.7978   87.2567    7.3459 N.ar    1  UNL1       -0.0817
@<TRIPOS>BOND
     1    22    23    1
     2    23    24   ar
     3    24    25   ar
     4     1    25    1
     5     1     2    1
     6     3     2    1
     7     3     4    1
     8     4     5    1
     9     5     6    1
    10     6     7    1
    11     6     8    2
    12     8     9    1
    13     9    14    1
    14    14    15   ar
    15    15    16   ar
    16    16    17   ar
    17    17    18    1
    18    17    19   ar
    19    19    20   ar
    20    20    21    1
    21     9    10    1
    22    10    11    1
    23    25    26   ar
    24    26    27   ar
    25    27    23   ar
    26    11     1    1
    27     9     3    1
    28    20    14   ar
    29     7    12    1
    30     7    13    1
@<TRIPOS>MOLECULE
*****
 27 30 0 0 0
SMALL
GASTEIGER

@<TRIPOS>ATOM
      1 C          63.7417   88.3436   13.6858 C.3     1  UNL1        0.1747
      2 C          64.0090   87.0326   14.3638 C.3     1  UNL1        0.0407
      3 C          63.6858   85.7463   13.6631 C.3     1  UNL1        0.0412
      4 C          63.9531   84.4352   14.3411 C.3     1  UNL1        0.0672
      5 S          63.6300   83.1489   13.6404 S.3     1  UNL1       -0.0807
      6 C          63.0395   83.1737   12.2617 C.2     1  UNL1        0.1482
      7 N          62.7163   81.8873   11.5611 N.pl3   1  UNL1       -0.3380
      8 N          62.7722   84.4847   11.5838 N.2     1  UNL1       -0.2484
      9 C          63.0954   85.7711   12.2845 C.3     1  UNL1        0.1352
     10 C          62.8281   87.0821   11.6065 C.3     1  UNL1        0.1691
     11 O          63.1512   88.3684   12.3072 O.3     1  UNL1       -0.3462
     12 H          62.8918   81.0268   12.0061 H       1  UNL1        0.1442
     13 H          62.3288   81.9035   10.6562 H       1  UNL1        0.1442
     14 C          62.5049   85.7958   10.9058 C.ar    1  UNL1        0.0278
     15 C          63.2785   85.2370    9.7484 C.ar    1  UNL1        0.0021
     16 C          62.6880   85.2618    8.3698 C.ar    1  UNL1        0.0295
     17 C          61.3239   85.8454    8.1484 C.ar    1  UNL1        0.1424
     18 F          60.7335   85.8701    6.7698 F       1  UNL1       -0.2041
     19 C          60.5504   86.4041    9.3058 C.ar    1  UNL1        0.0590
     20 C          61.1409   86.3793   10.6844 C.ar    1  UNL1        0.1402
     21 F          60.3674   86.9381   11.8418 F       1  UNL1       -0.2044
     22 C          66.2841   92.6794   15.3042 C.3     1  UNL1        0.0557
     23 C          65.2335   91.6229   15.1304 C.ar    1  UNL1        0.1008
     24 C          65.3410   90.4078   14.2574 C.ar    1  UNL1        0.0561
     25 C          64.0649   89.6300   14.3865 C.ar    1  UNL1        0.1809
     26 O          63.1688   90.3643   15.3393 O.2     1  UNL1       -0.3556
     27 N          63.8910   91.5960   15.7990 N.ar    1  UNL1       -0.0817
@<TRIPOS>BOND
     1    22    23    1
     2    23    24   ar
     3    24    25   ar
     4     1    25    1
     5     1     2    1
     6     3     2    1
     7     3     4    1
     8     4     5    1
     9     5     6    1
    10     6     7    1
    11     6     8    2
    12     8     9    1
    13     9    14    1
    14    14    15   ar
    15    15    16   ar
    16    16    17   ar
    17    17    18    1
    18    17    19   ar
    19    19    20   ar
    20    20    21    1
    21     9    10    1
    22    10    11    1
    23    25    26   ar
    24    26    27   ar
    25    27    23   ar
    26    11     1    1
    27     9     3    1
    28    20    14   ar
    29     7    12    1
    30     7    13    1
@<TRIPOS>MOLECULE
*****
 27 30 0 0 0
SMALL
GASTEIGER

@<TRIPOS>ATOM
      1 C          64.3235   88.5122   14.4260 C.3     1  UNL1        0.1747
      2 C          63.7433   89.0845   13.1668 C.3     1  UNL1        0.0407
      3 C          64.2361   90.4016   12.6450 C.3     1  UNL1        0.0412
      4 C          63.6559   90.9740   11.3857 C.3     1  UNL1        0.0672
      5 S          64.1487   92.2911   10.8639 S.3     1  UNL1       -0.0807
      6 C          65.2217   93.0359   11.6014 C.2     1  UNL1        0.1482
      7 N          65.7145   94.3531   11.0796 N.pl3   1  UNL1       -0.3380
      8 N          65.8019   92.4636   12.8607 N.2     1  UNL1       -0.2484
      9 C          65.3091   91.1464   13.3825 C.3     1  UNL1        0.1352
     10 C          65.8893   90.5741   14.6417 C.3     1  UNL1        0.1691
     11 O          65.3965   89.2570   15.1635 O.3     1  UNL1       -0.3462
     12 H          65.3337   94.7287   10.2531 H       1  UNL1        0.1442
     13 H          66.4188   94.8420   11.5636 H       1  UNL1        0.1442
     14 C          66.3821   91.8912   14.1200 C.ar    1  UNL1        0.0278
     15 C          66.0511   92.6256   15.3854 C.ar    1  UNL1        0.0021
     16 C          67.1242   93.3704   16.1229 C.ar    1  UNL1        0.0295
     17 C          68.5282   93.3809   15.5949 C.ar    1  UNL1        0.1424
     18 F          69.6012   94.1257   16.3324 F       1  UNL1       -0.2041
     19 C          68.8591   92.6465   14.3296 C.ar    1  UNL1        0.0590
     20 C          67.7861   91.9017   13.5921 C.ar    1  UNL1        0.1402
     21 F          68.1171   91.1673   12.3268 F       1  UNL1       -0.2044
     22 C          63.3634   83.3420   14.9047 C.3     1  UNL1        0.0557
     23 C          63.3894   84.8185   15.1678 C.ar    1  UNL1        0.1008
     24 C          64.0539   85.8552   14.3113 C.ar    1  UNL1        0.0561
     25 C          63.8307   87.1950   14.9479 C.ar    1  UNL1        0.1809
     26 O          63.0282   86.9863   16.1978 O.2     1  UNL1       -0.3556
     27 N          62.7555   85.5176   16.3338 N.ar    1  UNL1       -0.0817
@<TRIPOS>BOND
     1    22    23    1
     2    23    24   ar
     3    24    25   ar
     4     1    25    1
     5     1     2    1
     6     3     2    1
     7     3     4    1
     8     4     5    1
     9     5     6    1
    10     6     7    1
    11     6     8    2
    12     8     9    1
    13     9    14    1
    14    14    15   ar
    15    15    16   ar
    16    16    17   ar
    17    17    18    1
    18    17    19   ar
    19    19    20   ar
    20    20    21    1
    21     9    10    1
    22    10    11    1
    23    25    26   ar
    24    26    27   ar
    25    27    23   ar
    26    11     1    1
    27     9     3    1
    28    20    14   ar
    29     7    12    1
    30     7    13    1
@<TRIPOS>MOLECULE
*****
 27 30 0 0 0
SMALL
GASTEIGER

@<TRIPOS>ATOM
      1 C          61.7825   86.9089   10.7448 C.3     1  UNL1        0.1747
      2 C          62.5812   87.3722   11.9269 C.3     1  UNL1        0.0407
      3 C          63.2600   86.3699   12.8126 C.3     1  UNL1        0.0412
      4 C          64.0588   86.8331   13.9948 C.3     1  UNL1        0.0672
      5 S          64.7375   85.8308   14.8805 S.3     1  UNL1       -0.0807
      6 C          64.6176   84.3653   14.5842 C.2     1  UNL1        0.1482
      7 N          65.2964   83.3630   15.4701 N.pl3   1  UNL1       -0.3380
      8 N          63.8189   83.9020   13.4021 N.2     1  UNL1       -0.2484
      9 C          63.1400   84.9043   12.5163 C.3     1  UNL1        0.1352
     10 C          62.3413   84.4411   11.3342 C.3     1  UNL1        0.1691
     11 O          61.6625   85.4434   10.4484 O.3     1  UNL1       -0.3462
     12 H          65.8207   83.6670   16.2459 H       1  UNL1        0.1442
     13 H          65.2177   82.4011   15.2756 H       1  UNL1        0.1442
     14 C          63.0201   83.4388   12.2200 C.ar    1  UNL1        0.0278
     15 C          62.1856   82.5606   13.1046 C.ar    1  UNL1        0.0021
     16 C          62.0656   81.0951   12.8083 C.ar    1  UNL1        0.0295
     17 C          62.7802   80.5077   11.6273 C.ar    1  UNL1        0.1424
     18 F          62.6602   79.0422   11.3310 F       1  UNL1       -0.2041
     19 C          63.6146   81.3859   10.7427 C.ar    1  UNL1        0.0590
     20 C          63.7345   82.8515   11.0391 C.ar    1  UNL1        0.1402
     21 F          64.5689   83.7297   10.1545 F       1  UNL1       -0.2044
     22 C          59.1320   89.0772    6.7254 C.3     1  UNL1        0.0557
     23 C          59.8853   88.9078    8.0114 C.ar    1  UNL1        0.1008
     24 C          60.4236   87.6174    8.5546 C.ar    1  UNL1        0.0561
     25 C          61.1036   87.9112    9.8589 C.ar    1  UNL1        0.1809
     26 O          60.9857   89.3833   10.1219 O.2     1  UNL1       -0.3556
     27 N          60.2327   89.9992    8.9801 N.ar    1  UNL1       -0.0817
@<TRIPOS>BOND
     1    22    23    1
     2    23    24   ar
     3    24    25   ar
     4     1    25    1
     5     1     2    1
     6     3     2    1
     7     3     4    1
     8     4     5    1
     9     5     6    1
    10     6     7    1
    11     6     8    2
    12     8     9    1
    13     9    14    1
    14    14    15   ar
    15    15    16   ar
    16    16    17   ar
    17    17    18    1
    18    17    19   ar
    19    19    20   ar
    20    20    21    1
    21     9    10    1
    22    10    11    1
    23    25    26   ar
    24    26    27   ar
    25    27    23   ar
    26    11     1    1
    27     9     3    1
    28    20    14   ar
    29     7    12    1
    30     7    13    1
@<TRIPOS>MOLECULE
*****
 27 30 0 0 0
SMALL
GASTEIGER

@<TRIPOS>ATOM
      1 C          59.1764   93.4829   -1.2381 C.3     1  UNL1        0.1747
      2 C          59.7912   93.1093    0.0781 C.3     1  UNL1        0.0407
      3 C          61.2828   93.1086    0.2358 C.3     1  UNL1        0.0412
      4 C          61.8977   92.7350    1.5521 C.3     1  UNL1        0.0672
      5 S          63.3893   92.7344    1.7098 S.3     1  UNL1       -0.0807
      6 C          64.2662   93.1074    0.5514 C.2     1  UNL1        0.1482
      7 N          65.7579   93.1068    0.7092 N.pl3   1  UNL1       -0.3380
      8 N          63.6514   93.4810   -0.7648 N.2     1  UNL1       -0.2484
      9 C          62.1597   93.4816   -0.9226 C.3     1  UNL1        0.1352
     10 C          61.5449   93.8552   -2.2388 C.3     1  UNL1        0.1691
     11 O          60.0533   93.8558   -2.3966 O.3     1  UNL1       -0.3462
     12 H          66.1614   92.8616    1.5731 H       1  UNL1        0.1442
     13 H          66.3334   93.3516   -0.0511 H       1  UNL1        0.1442
     14 C          63.0366   93.8546   -2.0810 C.ar    1  UNL1        0.0278
     15 C          63.4273   92.8163   -3.0907 C.ar    1  UNL1        0.0021
     16 C          64.3041   93.1893   -4.2492 C.ar    1  UNL1        0.0295
     17 C          64.7903   94.6006   -4.3979 C.ar    1  UNL1        0.1424
     18 F          65.6672   94.9736   -5.5563 F       1  UNL1       -0.2041
     19 C          64.3996   95.6388   -3.3882 C.ar    1  UNL1        0.0590
     20 C          63.5227   95.2658   -2.2298 C.ar    1  UNL1        0.1402
     21 F          63.1320   96.3040   -1.2201 F       1  UNL1       -0.2044
     22 C          54.2011   95.1078   -1.9360 C.3     1  UNL1        0.0557
     23 C          55.3978   94.2305   -1.7167 C.ar    1  UNL1        0.1008
     24 C          56.8217   94.6908   -1.6148 C.ar    1  UNL1        0.0561
     25 C          57.6847   93.4835   -1.3960 C.ar    1  UNL1        0.1809
     26 O          56.7940   92.2770   -1.3627 O.2     1  UNL1       -0.3556
     27 N          55.3807   92.7386   -1.5610 N.ar    1  UNL1       -0.0817
@<TRIPOS>BOND
     1    22    23    1
     2    23    24   ar
     3    24    25   ar
     4     1    25    1
     5     1     2    1
     6     3     2    1
     7     3     4    1
     8     4     5    1
     9     5     6    1
    10     6     7    1
    11     6     8    2
    12     8     9    1
    13     9    14    1
    14    14    15   ar
    15    15    16   ar
    16    16    17   ar
    17    17    18    1
    18    17    19   ar
    19    19    20   ar
    20    20    21    1
    21     9    10    1
    22    10    11    1
    23    25    26   ar
    24    26    27   ar
    25    27    23   ar
    26    11     1    1
    27     9     3    1
    28    20    14   ar
    29     7    12    1
    30     7    13    1
