@<TRIPOS>MOLECULE
*****
 29 32 0 0 0
SMALL
GASTEIGER

@<TRIPOS>ATOM
      1 N          59.8231   88.5328   10.7162 N.pl3   1  UNL1       -0.3039
      2 H          58.8572   88.3763   10.8247 H       1  UNL1        0.1496
      3 C          60.3753   87.5604    7.9324 C.3     1  UNL1        0.1363
      4 N          61.0267   86.8883    9.1046 N.ar    1  UNL1       -0.2669
      5 C          60.7506   87.3745   10.4965 C.ar    1  UNL1        0.2002
      6 N          61.4020   86.7024   11.6687 N.ar    1  UNL1       -0.2150
      7 C          62.3295   85.5441   11.4490 C.ar    1  UNL1        0.0895
      8 C          62.9808   84.8721   12.6212 C.ar    1  UNL1        0.0307
      9 C          63.9082   83.7139   12.4015 C.ar    1  UNL1        0.0592
     10 CL         64.5596   83.0418   13.5737 Cl      1  UNL1       -0.0822
     11 C          64.1843   83.2277   11.0096 C.ar    1  UNL1        0.0116
     12 C          63.5330   83.8997    9.8374 C.ar    1  UNL1        0.0071
     13 C          62.6055   85.0579   10.0571 C.ar    1  UNL1        0.0740
     14 C          61.9541   85.7300    8.8849 C.ar    1  UNL1        0.2643
     15 O          62.2302   85.2438    7.4930 O.2     1  UNL1       -0.2668
     16 C          60.3673   89.9295   10.7705 C.3     1  UNL1        0.0942
     17 C          61.7415   90.2200   10.2441 C.3     1  UNL1        0.0476
     18 C          62.8334   90.6341   11.1856 C.ar    1  UNL1       -0.0205
     19 C          62.8969   90.0477   12.5647 C.ar    1  UNL1       -0.0042
     20 C          63.9887   90.4618   13.5063 C.ar    1  UNL1       -0.0003
     21 C          65.0169   91.4624   13.0686 C.ar    1  UNL1       -0.0000
     22 C          64.9533   92.0488   11.6895 C.ar    1  UNL1       -0.0003
     23 C          63.8616   91.6347   10.7480 C.ar    1  UNL1       -0.0042
     24 C          66.1087   91.8765   14.0102 C.ar    1  UNL1       -0.0000
     25 C          67.5311   91.9210   13.5360 C.ar    1  UNL1       -0.0000
     26 C          68.6229   92.3352   14.4775 C.ar    1  UNL1        0.0000
     27 C          68.2924   92.7049   15.8932 C.ar    1  UNL1        0.0000
     28 C          66.8700   92.6604   16.3673 C.ar    1  UNL1        0.0000
     29 C          65.7782   92.2462   15.4258 C.ar    1  UNL1       -0.0000
@<TRIPOS>BOND
     1     3     4    1
     2     4     5   ar
     3     5     1    1
     4     1    16    1
     5    16    17    1
     6    17    18    1
     7    18    19   ar
     8    19    20   ar
     9    20    21   ar
    10    21    24    1
    11    24    25   ar
    12    25    26   ar
    13    26    27   ar
    14    27    28   ar
    15    28    29   ar
    16    21    22   ar
    17    22    23   ar
    18     5     6   ar
    19     6     7   ar
    20     7     8   ar
    21     8     9   ar
    22     9    10    1
    23     9    11   ar
    24    11    12   ar
    25    12    13   ar
    26    13    14   ar
    27    14    15    2
    28    14     4   ar
    29    23    18   ar
    30    13     7   ar
    31    29    24   ar
    32     1     2    1
@<TRIPOS>MOLECULE
*****
 29 32 0 0 0
SMALL
GASTEIGER

@<TRIPOS>ATOM
      1 N          64.2907   87.9271   14.4784 N.pl3   1  UNL1       -0.3039
      2 H          65.2333   87.6802   14.6190 H       1  UNL1        0.1496
      3 C          64.1347   84.9614   14.0541 C.3     1  UNL1        0.1363
      4 N          63.4603   85.8933   13.0913 N.ar    1  UNL1       -0.2669
      5 C          63.5383   87.3761   13.3034 C.ar    1  UNL1        0.2002
      6 N          62.8640   88.3080   12.3407 N.ar    1  UNL1       -0.2150
      7 C          62.1117   87.7570   11.1657 C.ar    1  UNL1        0.0895
      8 C          61.4374   88.6889   10.2030 C.ar    1  UNL1        0.0307
      9 C          60.6851   88.1378    9.0281 C.ar    1  UNL1        0.0592
     10 CL         60.0107   89.0697    8.0653 Cl      1  UNL1       -0.0822
     11 C          60.6070   86.6550    8.8160 C.ar    1  UNL1        0.0116
     12 C          61.2813   85.7231    9.7788 C.ar    1  UNL1        0.0071
     13 C          62.0336   86.2741   10.9536 C.ar    1  UNL1        0.0740
     14 C          62.7080   85.3422   11.9164 C.ar    1  UNL1        0.2643
     15 O          62.6300   83.8594   11.7043 O.2     1  UNL1       -0.2668
     16 C          63.6069   88.8543   15.4390 C.3     1  UNL1        0.0942
     17 C          64.0840   90.2689   15.5843 C.3     1  UNL1        0.0476
     18 C          64.7532   90.9569   14.4315 C.ar    1  UNL1       -0.0205
     19 C          66.1886   91.3785   14.5405 C.ar    1  UNL1       -0.0042
     20 C          66.8579   92.0665   13.3878 C.ar    1  UNL1       -0.0003
     21 C          66.0918   92.3328   12.1260 C.ar    1  UNL1       -0.0000
     22 C          64.6564   91.9111   12.0170 C.ar    1  UNL1       -0.0003
     23 C          63.9871   91.2232   13.1697 C.ar    1  UNL1       -0.0042
     24 C          66.7610   93.0207   10.9732 C.ar    1  UNL1       -0.0000
     25 C          66.4775   94.4674   10.6961 C.ar    1  UNL1       -0.0000
     26 C          67.1467   95.1554    9.5434 C.ar    1  UNL1        0.0000
     27 C          68.0994   94.3967    8.6677 C.ar    1  UNL1        0.0000
     28 C          68.3829   92.9500    8.9448 C.ar    1  UNL1        0.0000
     29 C          67.7137   92.2620   10.0976 C.ar    1  UNL1       -0.0000
@<TRIPOS>BOND
     1     3     4    1
     2     4     5   ar
     3     5     1    1
     4     1    16    1
     5    16    17    1
     6    17    18    1
     7    18    19   ar
     8    19    20   ar
     9    20    21   ar
    10    21    24    1
    11    24    25   ar
    12    25    26   ar
    13    26    27   ar
    14    27    28   ar
    15    28    29   ar
    16    21    22   ar
    17    22    23   ar
    18     5     6   ar
    19     6     7   ar
    20     7     8   ar
    21     8     9   ar
    22     9    10    1
    23     9    11   ar
    24    11    12   ar
    25    12    13   ar
    26    13    14   ar
    27    14    15    2
    28    14     4   ar
    29    23    18   ar
    30    13     7   ar
    31    29    24   ar
    32     1     2    1
@<TRIPOS>MOLECULE
*****
 29 32 0 0 0
SMALL
GASTEIGER

@<TRIPOS>ATOM
      1 N          61.5952   87.4225    9.5987 N.pl3   1  UNL1       -0.3039
      2 H          61.4773   87.3738    8.6225 H       1  UNL1        0.1496
      3 C          62.9877   85.2242    8.1058 C.3     1  UNL1        0.1363
      4 N          62.8585   85.1522    9.5986 N.ar    1  UNL1       -0.2669
      5 C          62.1623   86.2513   10.3450 C.ar    1  UNL1        0.2002
      6 N          62.0331   86.1794   11.8377 N.ar    1  UNL1       -0.2150
      7 C          62.6002   85.0082   12.5840 C.ar    1  UNL1        0.0895
      8 C          62.4710   84.9363   14.0766 C.ar    1  UNL1        0.0307
      9 C          63.0380   83.7652   14.8229 C.ar    1  UNL1        0.0592
     10 CL         62.9089   83.6932   16.3156 Cl      1  UNL1       -0.0822
     11 C          63.7343   82.6660   14.0765 C.ar    1  UNL1        0.0116
     12 C          63.8634   82.7380   12.5838 C.ar    1  UNL1        0.0071
     13 C          63.2964   83.9091   11.8376 C.ar    1  UNL1        0.0740
     14 C          63.4256   83.9811   10.3448 C.ar    1  UNL1        0.2643
     15 O          64.1218   82.8819    9.5984 O.2     1  UNL1       -0.2668
     16 C          61.2079   88.6678   10.3397 C.3     1  UNL1        0.0942
     17 C          61.9497   89.9481   10.0940 C.3     1  UNL1        0.0476
     18 C          62.9853   90.4148   11.0738 C.ar    1  UNL1       -0.0205
     19 C          63.8657   91.5813   10.7358 C.ar    1  UNL1       -0.0042
     20 C          64.9012   92.0480   11.7155 C.ar    1  UNL1       -0.0003
     21 C          65.0564   91.3481   13.0331 C.ar    1  UNL1       -0.0000
     22 C          64.1761   90.1816   13.3710 C.ar    1  UNL1       -0.0003
     23 C          63.1405   89.7149   12.3913 C.ar    1  UNL1       -0.0042
     24 C          66.0920   91.8148   14.0129 C.ar    1  UNL1       -0.0000
     25 C          65.6858   92.2129   15.4008 C.ar    1  UNL1       -0.0000
     26 C          66.7213   92.6795   16.3806 C.ar    1  UNL1        0.0000
     27 C          68.1631   92.7481   15.9724 C.ar    1  UNL1        0.0000
     28 C          68.5693   92.3500   14.5844 C.ar    1  UNL1        0.0000
     29 C          67.5337   91.8834   13.6046 C.ar    1  UNL1       -0.0000
@<TRIPOS>BOND
     1     3     4    1
     2     4     5   ar
     3     5     1    1
     4     1    16    1
     5    16    17    1
     6    17    18    1
     7    18    19   ar
     8    19    20   ar
     9    20    21   ar
    10    21    24    1
    11    24    25   ar
    12    25    26   ar
    13    26    27   ar
    14    27    28   ar
    15    28    29   ar
    16    21    22   ar
    17    22    23   ar
    18     5     6   ar
    19     6     7   ar
    20     7     8   ar
    21     8     9   ar
    22     9    10    1
    23     9    11   ar
    24    11    12   ar
    25    12    13   ar
    26    13    14   ar
    27    14    15    2
    28    14     4   ar
    29    23    18   ar
    30    13     7   ar
    31    29    24   ar
    32     1     2    1
@<TRIPOS>MOLECULE
*****
 29 32 0 0 0
SMALL
GASTEIGER

@<TRIPOS>ATOM
      1 N          64.5991   87.5144   14.5342 N.pl3   1  UNL1       -0.3039
      2 H          65.4091   87.6863   15.0668 H       1  UNL1        0.1496
      3 C          63.3422   86.1837   16.9111 C.3     1  UNL1        0.1363
      4 N          63.4332   85.4537   15.6038 N.ar    1  UNL1       -0.2669
      5 C          64.0617   86.1190   14.4154 C.ar    1  UNL1        0.2002
      6 N          64.1527   85.3890   13.1082 N.ar    1  UNL1       -0.2150
      7 C          63.6153   83.9936   12.9894 C.ar    1  UNL1        0.0895
      8 C          63.7064   83.2636   11.6822 C.ar    1  UNL1        0.0307
      9 C          63.1689   81.8683   11.5634 C.ar    1  UNL1        0.0592
     10 CL         63.2600   81.1382   10.2562 Cl      1  UNL1       -0.0822
     11 C          62.5404   81.2029   12.7519 C.ar    1  UNL1        0.0116
     12 C          62.4494   81.9329   14.0590 C.ar    1  UNL1        0.0071
     13 C          62.9868   83.3283   14.1778 C.ar    1  UNL1        0.0740
     14 C          62.8958   84.0583   15.4850 C.ar    1  UNL1        0.2643
     15 O          62.2673   83.3930   16.6735 O.2     1  UNL1       -0.2668
     16 C          63.9024   88.6480   13.8417 C.3     1  UNL1        0.0942
     17 C          64.0608   90.0495   14.3521 C.3     1  UNL1        0.0476
     18 C          64.6271   91.1134   13.4590 C.ar    1  UNL1       -0.0205
     19 C          65.7339   91.9968   13.9535 C.ar    1  UNL1       -0.0042
     20 C          66.3002   93.0607   13.0605 C.ar    1  UNL1       -0.0003
     21 C          65.7597   93.2412   11.6730 C.ar    1  UNL1       -0.0000
     22 C          64.6529   92.3578   11.1785 C.ar    1  UNL1       -0.0003
     23 C          64.0866   91.2939   12.0715 C.ar    1  UNL1       -0.0042
     24 C          66.3260   94.3051   10.7800 C.ar    1  UNL1       -0.0000
     25 C          66.1559   95.7522   11.1363 C.ar    1  UNL1       -0.0000
     26 C          66.7221   96.8160   10.2433 C.ar    1  UNL1        0.0000
     27 C          67.4585   96.4329    8.9939 C.ar    1  UNL1        0.0000
     28 C          67.6286   94.9858    8.6375 C.ar    1  UNL1        0.0000
     29 C          67.0623   93.9219    9.5306 C.ar    1  UNL1       -0.0000
@<TRIPOS>BOND
     1     3     4    1
     2     4     5   ar
     3     5     1    1
     4     1    16    1
     5    16    17    1
     6    17    18    1
     7    18    19   ar
     8    19    20   ar
     9    20    21   ar
    10    21    24    1
    11    24    25   ar
    12    25    26   ar
    13    26    27   ar
    14    27    28   ar
    15    28    29   ar
    16    21    22   ar
    17    22    23   ar
    18     5     6   ar
    19     6     7   ar
    20     7     8   ar
    21     8     9   ar
    22     9    10    1
    23     9    11   ar
    24    11    12   ar
    25    12    13   ar
    26    13    14   ar
    27    14    15    2
    28    14     4   ar
    29    23    18   ar
    30    13     7   ar
    31    29    24   ar
    32     1     2    1
@<TRIPOS>MOLECULE
*****
 29 32 0 0 0
SMALL
GASTEIGER

@<TRIPOS>ATOM
      1 N          64.0982   88.3131   15.0830 N.pl3   1  UNL1       -0.3039
      2 H          64.6741   87.8450   15.7298 H       1  UNL1        0.1496
      3 C          64.5809   85.3679   14.7787 C.3     1  UNL1        0.1363
      4 N          63.8381   86.1201   13.7144 N.ar    1  UNL1       -0.2669
      5 C          63.5968   87.5927   13.8665 C.ar    1  UNL1        0.2002
      6 N          62.8540   88.3449   12.8023 N.ar    1  UNL1       -0.2150
      7 C          62.3526   87.6244   11.5859 C.ar    1  UNL1        0.0895
      8 C          61.6099   88.3766   10.5217 C.ar    1  UNL1        0.0307
      9 C          61.1085   87.6562    9.3054 C.ar    1  UNL1        0.0592
     10 CL         60.3658   88.4083    8.2411 Cl      1  UNL1       -0.0822
     11 C          61.3499   86.1835    9.1532 C.ar    1  UNL1        0.0116
     12 C          62.0926   85.4314   10.2174 C.ar    1  UNL1        0.0071
     13 C          62.5940   86.1518   11.4338 C.ar    1  UNL1        0.0740
     14 C          63.3367   85.3996   12.4980 C.ar    1  UNL1        0.2643
     15 O          63.5781   83.9270   12.3459 O.2     1  UNL1       -0.2668
     16 C          63.7221   89.7467   15.3138 C.3     1  UNL1        0.0942
     17 C          64.7914   90.7820   15.4999 C.3     1  UNL1        0.0476
     18 C          65.2388   91.6158   14.3360 C.ar    1  UNL1       -0.0205
     19 C          64.5653   91.4670   13.0040 C.ar    1  UNL1       -0.0042
     20 C          65.0126   92.3008   11.8401 C.ar    1  UNL1       -0.0003
     21 C          66.1334   93.2834   12.0082 C.ar    1  UNL1       -0.0000
     22 C          66.8068   93.4322   13.3402 C.ar    1  UNL1       -0.0003
     23 C          66.3595   92.5984   14.5041 C.ar    1  UNL1       -0.0042
     24 C          66.5807   94.1172   10.8443 C.ar    1  UNL1       -0.0000
     25 C          67.2311   93.4650    9.6604 C.ar    1  UNL1       -0.0000
     26 C          67.6785   94.2987    8.4965 C.ar    1  UNL1        0.0000
     27 C          67.4754   95.7848    8.5165 C.ar    1  UNL1        0.0000
     28 C          66.8250   96.4371    9.7003 C.ar    1  UNL1        0.0000
     29 C          66.3777   95.6032   10.8643 C.ar    1  UNL1       -0.0000
@<TRIPOS>BOND
     1     3     4    1
     2     4     5   ar
     3     5     1    1
     4     1    16    1
     5    16    17    1
     6    17    18    1
     7    18    19   ar
     8    19    20   ar
     9    20    21   ar
    10    21    24    1
    11    24    25   ar
    12    25    26   ar
    13    26    27   ar
    14    27    28   ar
    15    28    29   ar
    16    21    22   ar
    17    22    23   ar
    18     5     6   ar
    19     6     7   ar
    20     7     8   ar
    21     8     9   ar
    22     9    10    1
    23     9    11   ar
    24    11    12   ar
    25    12    13   ar
    26    13    14   ar
    27    14    15    2
    28    14     4   ar
    29    23    18   ar
    30    13     7   ar
    31    29    24   ar
    32     1     2    1
@<TRIPOS>MOLECULE
*****
 29 32 0 0 0
SMALL
GASTEIGER

@<TRIPOS>ATOM
      1 N          60.1804   90.1025    9.8074 N.pl3   1  UNL1       -0.3039
      2 H          59.2618   90.2616   10.1237 H       1  UNL1        0.1496
      3 C          60.1121   89.3174   12.7021 C.3     1  UNL1        0.1363
      4 N          61.3114   90.0257   12.1452 N.ar    1  UNL1       -0.2669
      5 C          61.3455   90.4183   10.6979 C.ar    1  UNL1        0.2002
      6 N          62.5447   91.1266   10.1410 N.ar    1  UNL1       -0.2150
      7 C          63.7098   91.4424   11.0315 C.ar    1  UNL1        0.0895
      8 C          64.9090   92.1508   10.4746 C.ar    1  UNL1        0.0307
      9 C          66.0741   92.4666   11.3650 C.ar    1  UNL1        0.0592
     10 CL         67.2733   93.1749   10.8082 Cl      1  UNL1       -0.0822
     11 C          66.0399   92.0740   12.8124 C.ar    1  UNL1        0.0116
     12 C          64.8407   91.3657   13.3692 C.ar    1  UNL1        0.0071
     13 C          63.6757   91.0499   12.4788 C.ar    1  UNL1        0.0740
     14 C          62.4764   90.3415   13.0357 C.ar    1  UNL1        0.2643
     15 O          62.4422   89.9490   14.4830 O.2     1  UNL1       -0.2668
     16 C          60.4149   89.5443    8.4351 C.3     1  UNL1        0.0942
     17 C          60.2421   88.0757    8.1832 C.3     1  UNL1        0.0476
     18 C          60.9415   87.0774    9.0575 C.ar    1  UNL1       -0.0205
     19 C          60.5855   86.9740   10.5110 C.ar    1  UNL1       -0.0042
     20 C          61.2848   85.9757   11.3852 C.ar    1  UNL1       -0.0003
     21 C          62.3400   85.0808   10.8060 C.ar    1  UNL1       -0.0000
     22 C          62.6960   85.1842    9.3525 C.ar    1  UNL1       -0.0003
     23 C          61.9967   86.1825    8.4782 C.ar    1  UNL1       -0.0042
     24 C          63.0394   84.0824   11.6802 C.ar    1  UNL1       -0.0000
     25 C          62.9808   82.6214   11.3455 C.ar    1  UNL1       -0.0000
     26 C          63.6801   81.6231   12.2197 C.ar    1  UNL1        0.0000
     27 C          64.4381   82.0857   13.4287 C.ar    1  UNL1        0.0000
     28 C          64.4967   83.5467   13.7634 C.ar    1  UNL1        0.0000
     29 C          63.7973   84.5451   12.8891 C.ar    1  UNL1       -0.0000
@<TRIPOS>BOND
     1     3     4    1
     2     4     5   ar
     3     5     1    1
     4     1    16    1
     5    16    17    1
     6    17    18    1
     7    18    19   ar
     8    19    20   ar
     9    20    21   ar
    10    21    24    1
    11    24    25   ar
    12    25    26   ar
    13    26    27   ar
    14    27    28   ar
    15    28    29   ar
    16    21    22   ar
    17    22    23   ar
    18     5     6   ar
    19     6     7   ar
    20     7     8   ar
    21     8     9   ar
    22     9    10    1
    23     9    11   ar
    24    11    12   ar
    25    12    13   ar
    26    13    14   ar
    27    14    15    2
    28    14     4   ar
    29    23    18   ar
    30    13     7   ar
    31    29    24   ar
    32     1     2    1
@<TRIPOS>MOLECULE
*****
 29 32 0 0 0
SMALL
GASTEIGER

@<TRIPOS>ATOM
      1 N          63.1479   85.2608   14.2553 N.pl3   1  UNL1       -0.3039
      2 H          62.6481   84.6625   14.8565 H       1  UNL1        0.1496
      3 C          64.6542   83.2622   12.6010 C.3     1  UNL1        0.1363
      4 N          63.6774   84.1936   11.9464 N.ar    1  UNL1       -0.2669
      5 C          62.9242   85.1929   12.7736 C.ar    1  UNL1        0.2002
      6 N          61.9475   86.1243   12.1191 N.ar    1  UNL1       -0.2150
      7 C          61.7238   86.0564   10.6373 C.ar    1  UNL1        0.0895
      8 C          60.7470   86.9877    9.9829 C.ar    1  UNL1        0.0307
      9 C          60.5234   86.9198    8.5012 C.ar    1  UNL1        0.0592
     10 CL         59.5465   87.8512    7.8466 Cl      1  UNL1       -0.0822
     11 C          61.2765   85.9206    7.6740 C.ar    1  UNL1        0.0116
     12 C          62.2533   84.9892    8.3285 C.ar    1  UNL1        0.0071
     13 C          62.4770   85.0571    9.8102 C.ar    1  UNL1        0.0740
     14 C          63.4538   84.1257   10.4647 C.ar    1  UNL1        0.2643
     15 O          64.2069   83.1264    9.6376 O.2     1  UNL1       -0.2668
     16 C          64.1331   86.2402   14.8210 C.3     1  UNL1        0.0942
     17 C          63.6707   87.5948   15.2695 C.3     1  UNL1        0.0476
     18 C          64.0842   88.8188   14.5073 C.ar    1  UNL1       -0.0205
     19 C          63.5320   89.0703   13.1355 C.ar    1  UNL1       -0.0042
     20 C          63.9455   90.2943   12.3734 C.ar    1  UNL1       -0.0003
     21 C          64.9111   91.2668   12.9831 C.ar    1  UNL1       -0.0000
     22 C          65.4632   91.0154   14.3549 C.ar    1  UNL1       -0.0003
     23 C          65.0498   89.7914   15.1170 C.ar    1  UNL1       -0.0042
     24 C          65.3245   92.4908   12.2209 C.ar    1  UNL1       -0.0000
     25 C          66.0482   93.6020   12.9220 C.ar    1  UNL1       -0.0000
     26 C          66.4617   94.8260   12.1600 C.ar    1  UNL1        0.0000
     27 C          66.1515   94.9389   10.6967 C.ar    1  UNL1        0.0000
     28 C          65.4278   93.8277    9.9955 C.ar    1  UNL1        0.0000
     29 C          65.0143   92.6037   10.7577 C.ar    1  UNL1       -0.0000
@<TRIPOS>BOND
     1     3     4    1
     2     4     5   ar
     3     5     1    1
     4     1    16    1
     5    16    17    1
     6    17    18    1
     7    18    19   ar
     8    19    20   ar
     9    20    21   ar
    10    21    24    1
    11    24    25   ar
    12    25    26   ar
    13    26    27   ar
    14    27    28   ar
    15    28    29   ar
    16    21    22   ar
    17    22    23   ar
    18     5     6   ar
    19     6     7   ar
    20     7     8   ar
    21     8     9   ar
    22     9    10    1
    23     9    11   ar
    24    11    12   ar
    25    12    13   ar
    26    13    14   ar
    27    14    15    2
    28    14     4   ar
    29    23    18   ar
    30    13     7   ar
    31    29    24   ar
    32     1     2    1
@<TRIPOS>MOLECULE
*****
 29 32 0 0 0
SMALL
GASTEIGER

@<TRIPOS>ATOM
      1 N          64.8026   89.4091   14.9695 N.pl3   1  UNL1       -0.3039
      2 H          65.7601   89.5995   15.0969 H       1  UNL1        0.1496
      3 C          63.0715   88.8113   17.3456 C.3     1  UNL1        0.1363
      4 N          63.4133   87.7212   16.3735 N.ar    1  UNL1       -0.2669
      5 C          64.2789   88.0201   15.1855 C.ar    1  UNL1        0.2002
      6 N          64.6208   86.9301   14.2134 N.ar    1  UNL1       -0.2150
      7 C          64.0971   85.5412   14.4294 C.ar    1  UNL1        0.0895
      8 C          64.4390   84.4512   13.4573 C.ar    1  UNL1        0.0307
      9 C          63.9153   83.0623   13.6733 C.ar    1  UNL1        0.0592
     10 CL         64.2572   81.9722   12.7012 Cl      1  UNL1       -0.0822
     11 C          63.0498   82.7634   14.8613 C.ar    1  UNL1        0.0116
     12 C          62.7079   83.8534   15.8334 C.ar    1  UNL1        0.0071
     13 C          63.2315   85.2423   15.6174 C.ar    1  UNL1        0.0740
     14 C          62.8897   86.3324   16.5895 C.ar    1  UNL1        0.2643
     15 O          62.0241   86.0335   17.7775 O.2     1  UNL1       -0.2668
     16 C          63.8675   90.5079   14.5596 C.3     1  UNL1        0.0942
     17 C          63.7956   90.9347   13.1234 C.3     1  UNL1        0.0476
     18 C          63.1767   90.0276   12.1015 C.ar    1  UNL1       -0.0205
     19 C          63.1234   88.5486   12.3458 C.ar    1  UNL1       -0.0042
     20 C          62.5046   87.6415   11.3240 C.ar    1  UNL1       -0.0003
     21 C          61.9391   88.2134   10.0578 C.ar    1  UNL1       -0.0000
     22 C          61.9925   89.6924    9.8135 C.ar    1  UNL1       -0.0003
     23 C          62.6113   90.5995   10.8354 C.ar    1  UNL1       -0.0042
     24 C          61.3203   87.3063    9.0359 C.ar    1  UNL1       -0.0000
     25 C          59.9067   87.5340    8.5889 C.ar    1  UNL1       -0.0000
     26 C          59.2878   86.6270    7.5671 C.ar    1  UNL1        0.0000
     27 C          60.0826   85.4921    6.9921 C.ar    1  UNL1        0.0000
     28 C          61.4962   85.2644    7.4390 C.ar    1  UNL1        0.0000
     29 C          62.1151   86.1715    8.4610 C.ar    1  UNL1       -0.0000
@<TRIPOS>BOND
     1     3     4    1
     2     4     5   ar
     3     5     1    1
     4     1    16    1
     5    16    17    1
     6    17    18    1
     7    18    19   ar
     8    19    20   ar
     9    20    21   ar
    10    21    24    1
    11    24    25   ar
    12    25    26   ar
    13    26    27   ar
    14    27    28   ar
    15    28    29   ar
    16    21    22   ar
    17    22    23   ar
    18     5     6   ar
    19     6     7   ar
    20     7     8   ar
    21     8     9   ar
    22     9    10    1
    23     9    11   ar
    24    11    12   ar
    25    12    13   ar
    26    13    14   ar
    27    14    15    2
    28    14     4   ar
    29    23    18   ar
    30    13     7   ar
    31    29    24   ar
    32     1     2    1
@<TRIPOS>MOLECULE
*****
 29 32 0 0 0
SMALL
GASTEIGER

@<TRIPOS>ATOM
      1 N          64.4806   87.9976   14.7497 N.pl3   1  UNL1       -0.3039
      2 H          65.3611   87.9455   15.1870 H       1  UNL1        0.1496
      3 C          63.1127   88.4689   12.1217 C.3     1  UNL1        0.1363
      4 N          63.2861   87.0708   12.6368 N.ar    1  UNL1       -0.2669
      5 C          63.9700   86.8351   13.9509 C.ar    1  UNL1        0.2002
      6 N          64.1434   85.4371   14.4660 N.ar    1  UNL1       -0.2150
      7 C          63.6327   84.2747   13.6672 C.ar    1  UNL1        0.0895
      8 C          63.8061   82.8767   14.1824 C.ar    1  UNL1        0.0307
      9 C          63.2955   81.7143   13.3835 C.ar    1  UNL1        0.0592
     10 CL         63.4688   80.3162   13.8987 Cl      1  UNL1       -0.0822
     11 C          62.6116   81.9500   12.0695 C.ar    1  UNL1        0.0116
     12 C          62.4382   83.3480   11.5543 C.ar    1  UNL1        0.0071
     13 C          62.9488   84.5104   12.3532 C.ar    1  UNL1        0.0740
     14 C          62.7755   85.9085   11.8380 C.ar    1  UNL1        0.2643
     15 O          62.0915   86.1442   10.5240 O.2     1  UNL1       -0.2668
     16 C          63.6497   89.2393   14.8823 C.3     1  UNL1        0.0942
     17 C          64.3021   90.5449   15.2280 C.3     1  UNL1        0.0476
     18 C          64.8552   91.4181   14.1408 C.ar    1  UNL1       -0.0205
     19 C          64.2675   91.3617   12.7618 C.ar    1  UNL1       -0.0042
     20 C          64.8205   92.2347   11.6746 C.ar    1  UNL1       -0.0003
     21 C          65.9611   93.1642   11.9664 C.ar    1  UNL1       -0.0000
     22 C          66.5487   93.2205   13.3454 C.ar    1  UNL1       -0.0003
     23 C          65.9957   92.3475   14.4326 C.ar    1  UNL1       -0.0042
     24 C          66.5141   94.0373   10.8792 C.ar    1  UNL1       -0.0000
     25 C          67.2547   93.4235    9.7282 C.ar    1  UNL1       -0.0000
     26 C          67.8077   94.2965    8.6411 C.ar    1  UNL1        0.0000
     27 C          67.6201   95.7834    8.7049 C.ar    1  UNL1        0.0000
     28 C          66.8796   96.3972    9.8559 C.ar    1  UNL1        0.0000
     29 C          66.3265   95.5241   10.9431 C.ar    1  UNL1       -0.0000
@<TRIPOS>BOND
     1     3     4    1
     2     4     5   ar
     3     5     1    1
     4     1    16    1
     5    16    17    1
     6    17    18    1
     7    18    19   ar
     8    19    20   ar
     9    20    21   ar
    10    21    24    1
    11    24    25   ar
    12    25    26   ar
    13    26    27   ar
    14    27    28   ar
    15    28    29   ar
    16    21    22   ar
    17    22    23   ar
    18     5     6   ar
    19     6     7   ar
    20     7     8   ar
    21     8     9   ar
    22     9    10    1
    23     9    11   ar
    24    11    12   ar
    25    12    13   ar
    26    13    14   ar
    27    14    15    2
    28    14     4   ar
    29    23    18   ar
    30    13     7   ar
    31    29    24   ar
    32     1     2    1
