@<TRIPOS>MOLECULE
*****
 49 55 0 0 0
SMALL
GASTEIGER

@<TRIPOS>ATOM
      1 C          59.3579   89.0559    7.4597 C.3     1  UNL1        0.1543
      2 O          59.4607   88.8835   10.4530 O.2     1  UNL1       -0.2526
      3 C          60.5465   89.5990    9.7052 C.2     1  UNL1        0.3043
      4 N          60.4951   89.6852    8.2085 N.am    1  UNL1       -0.2822
      5 N          61.6837   90.2282   10.4541 N.am    1  UNL1       -0.2641
      6 C          61.7351   90.1420   11.9507 C.3     1  UNL1        0.0966
      7 C          62.8723   90.7713   12.6996 C.3     1  UNL1        0.0415
      8 C          63.9581   91.4867   11.9518 C.3     1  UNL1        0.0806
      9 C          63.9067   91.5729   10.4551 C.3     1  UNL1        0.0415
     10 C          62.7695   90.9437    9.7063 C.3     1  UNL1        0.0966
     11 H          61.2077   90.1547    7.7178 H       1  UNL1        0.1514
     12 N          65.0953   92.1159   12.7006 N.am    1  UNL1       -0.2613
     13 C          65.6339   91.4591   13.9369 C.3     1  UNL1        0.1228
     14 C          66.7712   92.0884   14.6858 C.ar    1  UNL1        0.0112
     15 C          67.3098   91.4315   15.9220 C.ar    1  UNL1       -0.0014
     16 C          68.4470   92.0607   16.6709 C.ar    1  UNL1       -0.0002
     17 C          69.0456   93.3469   16.1835 C.ar    1  UNL1        0.0013
     18 C          68.5070   94.0038   14.9473 C.ar    1  UNL1        0.0144
     19 C          67.3697   93.3745   14.1984 C.ar    1  UNL1        0.0492
     20 N          66.8311   94.0314   12.9621 N.am    1  UNL1       -0.2684
     21 C          65.6939   93.4021   12.2133 C.2     1  UNL1        0.3079
     22 O          65.1552   94.0590   10.9770 O.2     1  UNL1       -0.2522
     23 H          67.2239   94.8755   12.6422 H       1  UNL1        0.1564
     24 C          58.5195   89.8858    6.5332 C.2     1  UNL1        0.2439
     25 O          57.0247   89.8694    6.6569 O.2     1  UNL1       -0.2731
     26 N          59.1759   90.7322    5.4831 N.am    1  UNL1       -0.2781
     27 C          60.6707   90.7486    5.3594 C.3     1  UNL1        0.0948
     28 C          61.3271   91.5949    4.3092 C.3     1  UNL1        0.0375
     29 C          60.4887   92.4248    3.3827 C.3     1  UNL1        0.0609
     30 C          58.9939   92.4084    3.5064 C.3     1  UNL1        0.0375
     31 C          58.3375   91.5621    4.5566 C.3     1  UNL1        0.0948
     32 N          61.1451   93.2711    2.3326 N.3     1  UNL1       -0.2738
     33 C          62.4318   92.8235    1.7049 C.3     1  UNL1        0.0720
     34 C          63.0882   93.6699    0.6547 C.3     1  UNL1        0.0174
     35 C          62.4579   94.9638    0.2322 C.3     1  UNL1        0.0029
     36 C          61.1712   95.4114    0.8599 C.3     1  UNL1        0.0174
     37 C          60.5148   94.5651    1.9101 C.3     1  UNL1        0.0720
     38 C          59.0591   87.5967    7.6373 C.3     1  UNL1        0.0552
     39 C          60.1751   86.6289    7.8976 C.2     1  UNL1       -0.0201
     40 C          60.7963   85.8764    6.7584 C.2     1  UNL1       -0.0143
     41 C          61.9123   84.9085    7.0188 C.3     1  UNL1        0.1151
     42 I          62.5336   84.1560    5.8796 I       1  UNL1       -0.0641
     43 C          62.4071   84.6931    8.4183 C.2     1  UNL1        0.1024
     44 N          63.4835   83.8109    8.9778 N.am    1  UNL1       -0.1423
     45 C          63.5276   84.0181   10.4627 C.2     1  UNL1        0.4298
     46 O          64.4576   83.3350   11.4211 O.2     1  UNL1       -0.2238
     47 O          62.4784   85.0285   10.8210 O.3     1  UNL1       -0.4078
     48 C          61.7858   85.4456    9.5576 C.2     1  UNL1        0.1621
     49 C          60.6699   86.4135    9.2972 C.2     1  UNL1        0.0342
@<TRIPOS>BOND
     1     2     3    2
     2     3     4   am
     3     4     1    1
     4     1    38    1
     5    38    39    1
     6    39    40    2
     7    40    41    1
     8    41    42    1
     9    41    43    1
    10    43    44    2
    11    44    45    1
    12    45    46    2
    13    45    47    1
    14    47    48    1
    15    48    49    2
    16     1    24    1
    17    24    25    2
    18    24    26   am
    19    26    27    1
    20    27    28    1
    21    28    29    1
    22    29    32    1
    23    32    33    1
    24    33    34    1
    25    34    35    1
    26    35    36    1
    27    36    37    1
    28    29    30    1
    29    30    31    1
    30     3     5   am
    31     5     6    1
    32     6     7    1
    33     7     8    1
    34     8    12    1
    35    12    13    1
    36    13    14    1
    37    14    15   ar
    38    15    16   ar
    39    16    17   ar
    40    17    18   ar
    41    18    19   ar
    42    19    20    1
    43    20    21   am
    44    21    22    2
    45     8     9    1
    46     9    10    1
    47    49    39    1
    48    31    26    1
    49    10     5    1
    50    48    43    1
    51    37    32    1
    52    21    12   am
    53    19    14   ar
    54     4    11    1
    55    20    23    1
@<TRIPOS>MOLECULE
*****
 49 55 0 0 0
SMALL
GASTEIGER

@<TRIPOS>ATOM
      1 C          60.7753   87.9820    8.9614 C.3     1  UNL1        0.1543
      2 O          58.2290   88.9103    7.6753 O.2     1  UNL1       -0.2526
      3 C          59.5516   89.3720    7.1392 C.2     1  UNL1        0.3043
      4 N          60.8248   88.9078    7.7823 N.am    1  UNL1       -0.2822
      5 N          59.6011   90.2978    5.9602 N.am    1  UNL1       -0.2641
      6 C          58.3279   90.7620    5.3171 C.3     1  UNL1        0.0966
      7 C          58.3774   91.6879    4.1379 C.3     1  UNL1        0.0415
      8 C          59.7000   92.1496    3.6019 C.3     1  UNL1        0.0806
      9 C          60.9732   91.6855    4.2450 C.3     1  UNL1        0.0415
     10 C          60.9238   90.7596    5.4241 C.3     1  UNL1        0.0966
     11 H          61.6929   89.2109    7.4305 H       1  UNL1        0.1514
     12 N          59.7495   93.0755    2.4229 N.am    1  UNL1       -0.2613
     13 C          59.7228   92.5186    1.0303 C.3     1  UNL1        0.1228
     14 C          59.7723   93.4445   -0.1488 C.ar    1  UNL1        0.0112
     15 C          59.7457   92.8877   -1.5413 C.ar    1  UNL1       -0.0014
     16 C          59.7951   93.8135   -2.7204 C.ar    1  UNL1       -0.0002
     17 C          59.8712   95.2964   -2.5070 C.ar    1  UNL1        0.0013
     18 C          59.8979   95.8532   -1.1145 C.ar    1  UNL1        0.0144
     19 C          59.8484   94.9273    0.0647 C.ar    1  UNL1        0.0492
     20 N          59.8751   95.4842    1.4572 N.am    1  UNL1       -0.2684
     21 C          59.8256   94.5583    2.6363 C.2     1  UNL1        0.3079
     22 O          59.8523   95.1152    4.0288 O.2     1  UNL1       -0.2522
     23 H          59.9250   96.4574    1.5973 H       1  UNL1        0.1564
     24 C          60.5213   88.5293   10.3347 C.2     1  UNL1        0.2439
     25 O          59.2185   88.2506   11.0240 O.2     1  UNL1       -0.2731
     26 N          61.5701   89.3553   11.0187 N.am    1  UNL1       -0.2781
     27 C          62.8728   89.6339   10.3294 C.3     1  UNL1        0.0948
     28 C          63.9216   90.4599   11.0133 C.3     1  UNL1        0.0375
     29 C          63.6676   91.0073   12.3866 C.3     1  UNL1        0.0609
     30 C          62.3648   90.7286   13.0759 C.3     1  UNL1        0.0375
     31 C          61.3161   89.9026   12.3919 C.3     1  UNL1        0.0948
     32 N          64.7164   91.8332   13.0706 N.3     1  UNL1       -0.2738
     33 C          65.4377   92.9075   12.3120 C.3     1  UNL1        0.0720
     34 C          66.4865   93.7336   12.9959 C.3     1  UNL1        0.0174
     35 C          66.8139   93.4852   14.4385 C.3     1  UNL1        0.0029
     36 C          66.0926   92.4109   15.1972 C.3     1  UNL1        0.0174
     37 C          65.0438   91.5849   14.5132 C.3     1  UNL1        0.0720
     38 C          60.9799   86.5087    8.7672 C.3     1  UNL1        0.0552
     39 C          61.7439   85.7168    9.7866 C.2     1  UNL1       -0.0201
     40 C          62.6802   84.6312    9.3452 C.2     1  UNL1       -0.0143
     41 C          63.4443   83.8393   10.3647 C.3     1  UNL1        0.1151
     42 I          64.3806   82.7538    9.9232 I       1  UNL1       -0.0641
     43 C          63.2720   84.1330   11.8255 C.2     1  UNL1        0.1024
     44 N          63.8862   83.5240   13.0510 N.am    1  UNL1       -0.1423
     45 C          63.3295   84.2332   14.2498 C.2     1  UNL1        0.4298
     46 O          63.6712   83.9455   15.6818 O.2     1  UNL1       -0.2238
     47 O          62.3712   85.2805   13.7652 O.3     1  UNL1       -0.4078
     48 C          62.3356   85.2186   12.2669 C.2     1  UNL1        0.1621
     49 C          61.5716   86.0105   11.2475 C.2     1  UNL1        0.0342
@<TRIPOS>BOND
     1     2     3    2
     2     3     4   am
     3     4     1    1
     4     1    38    1
     5    38    39    1
     6    39    40    2
     7    40    41    1
     8    41    42    1
     9    41    43    1
    10    43    44    2
    11    44    45    1
    12    45    46    2
    13    45    47    1
    14    47    48    1
    15    48    49    2
    16     1    24    1
    17    24    25    2
    18    24    26   am
    19    26    27    1
    20    27    28    1
    21    28    29    1
    22    29    32    1
    23    32    33    1
    24    33    34    1
    25    34    35    1
    26    35    36    1
    27    36    37    1
    28    29    30    1
    29    30    31    1
    30     3     5   am
    31     5     6    1
    32     6     7    1
    33     7     8    1
    34     8    12    1
    35    12    13    1
    36    13    14    1
    37    14    15   ar
    38    15    16   ar
    39    16    17   ar
    40    17    18   ar
    41    18    19   ar
    42    19    20    1
    43    20    21   am
    44    21    22    2
    45     8     9    1
    46     9    10    1
    47    49    39    1
    48    31    26    1
    49    10     5    1
    50    48    43    1
    51    37    32    1
    52    21    12   am
    53    19    14   ar
    54     4    11    1
    55    20    23    1
@<TRIPOS>MOLECULE
*****
 49 55 0 0 0
SMALL
GASTEIGER

@<TRIPOS>ATOM
      1 C          60.2412   89.3019    8.1289 C.3     1  UNL1        0.1543
      2 O          58.1325   90.4672    6.3413 O.2     1  UNL1       -0.2526
      3 C          59.5831   90.6358    5.9988 C.2     1  UNL1        0.3043
      4 N          60.6374   90.0531    6.8925 N.am    1  UNL1       -0.2822
      5 N          59.9792   91.3871    4.7624 N.am    1  UNL1       -0.2641
      6 C          58.9249   91.9697    3.8687 C.3     1  UNL1        0.0966
      7 C          59.3211   92.7210    2.6323 C.3     1  UNL1        0.0415
      8 C          60.7717   92.8896    2.2897 C.3     1  UNL1        0.0806
      9 C          61.8261   92.3070    3.1835 C.3     1  UNL1        0.0415
     10 C          61.4299   91.5557    4.4198 C.3     1  UNL1        0.0966
     11 H          61.5895   90.1638    6.6677 H       1  UNL1        0.1514
     12 N          61.1679   93.6409    1.0533 N.am    1  UNL1       -0.2613
     13 C          61.7407   92.9039   -0.1209 C.3     1  UNL1        0.1228
     14 C          62.1369   93.6553   -1.3572 C.ar    1  UNL1        0.0112
     15 C          62.7097   92.9183   -2.5315 C.ar    1  UNL1       -0.0014
     16 C          63.1059   93.6696   -3.7678 C.ar    1  UNL1       -0.0002
     17 C          62.9293   95.1579   -3.8300 C.ar    1  UNL1        0.0013
     18 C          62.3565   95.8949   -2.6558 C.ar    1  UNL1        0.0144
     19 C          61.9603   95.1435   -1.4194 C.ar    1  UNL1        0.0492
     20 N          61.3875   95.8805   -0.2452 N.am    1  UNL1       -0.2684
     21 C          60.9913   95.1292    0.9912 C.2     1  UNL1        0.3079
     22 O          60.4185   95.8662    2.1654 O.2     1  UNL1       -0.2522
     23 H          61.2716   96.8573   -0.2860 H       1  UNL1        0.1564
     24 C          60.1604   87.8043    8.1029 C.2     1  UNL1        0.2439
     25 O          59.3133   87.1167    7.0734 O.2     1  UNL1       -0.2731
     26 N          60.9266   86.9943    9.1063 N.am    1  UNL1       -0.2781
     27 C          61.7736   87.6819   10.1356 C.3     1  UNL1        0.0948
     28 C          62.5399   86.8720   11.1391 C.3     1  UNL1        0.0375
     29 C          62.4591   85.3744   11.1131 C.3     1  UNL1        0.0609
     30 C          61.6120   84.6868   10.0837 C.3     1  UNL1        0.0375
     31 C          60.8458   85.4967    9.0803 C.3     1  UNL1        0.0948
     32 N          63.2253   84.5644   12.1165 N.3     1  UNL1       -0.2738
     33 C          63.5503   83.1283   11.8302 C.3     1  UNL1        0.0720
     34 C          64.3165   82.3183   12.8336 C.3     1  UNL1        0.0174
     35 C          64.7577   82.9444   14.1233 C.3     1  UNL1        0.0029
     36 C          64.4327   84.3806   14.4096 C.3     1  UNL1        0.0174
     37 C          63.6665   85.1905   13.4062 C.3     1  UNL1        0.0720
     38 C          59.9259   90.0482    9.3913 C.3     1  UNL1        0.0552
     39 C          61.0111   90.3279   10.3882 C.2     1  UNL1       -0.0201
     40 C          62.2641   91.0300    9.9557 C.2     1  UNL1       -0.0143
     41 C          63.3494   91.3097   10.9527 C.3     1  UNL1        0.1151
     42 I          64.6024   92.0118   10.5202 I       1  UNL1       -0.0641
     43 C          63.1816   90.8873   12.3822 C.2     1  UNL1        0.1024
     44 N          64.0726   91.0259   13.5809 N.am    1  UNL1       -0.1423
     45 C          63.3704   90.4095   14.7543 C.2     1  UNL1        0.4298
     46 O          63.9001   90.3271   16.1552 O.2     1  UNL1       -0.2238
     47 O          62.0453   89.8899   14.2807 O.3     1  UNL1       -0.4078
     48 C          61.9287   90.1852   12.8147 C.2     1  UNL1        0.1621
     49 C          60.8434   89.9055   11.8178 C.2     1  UNL1        0.0342
@<TRIPOS>BOND
     1     2     3    2
     2     3     4   am
     3     4     1    1
     4     1    38    1
     5    38    39    1
     6    39    40    2
     7    40    41    1
     8    41    42    1
     9    41    43    1
    10    43    44    2
    11    44    45    1
    12    45    46    2
    13    45    47    1
    14    47    48    1
    15    48    49    2
    16     1    24    1
    17    24    25    2
    18    24    26   am
    19    26    27    1
    20    27    28    1
    21    28    29    1
    22    29    32    1
    23    32    33    1
    24    33    34    1
    25    34    35    1
    26    35    36    1
    27    36    37    1
    28    29    30    1
    29    30    31    1
    30     3     5   am
    31     5     6    1
    32     6     7    1
    33     7     8    1
    34     8    12    1
    35    12    13    1
    36    13    14    1
    37    14    15   ar
    38    15    16   ar
    39    16    17   ar
    40    17    18   ar
    41    18    19   ar
    42    19    20    1
    43    20    21   am
    44    21    22    2
    45     8     9    1
    46     9    10    1
    47    49    39    1
    48    31    26    1
    49    10     5    1
    50    48    43    1
    51    37    32    1
    52    21    12   am
    53    19    14   ar
    54     4    11    1
    55    20    23    1
@<TRIPOS>MOLECULE
*****
 49 55 0 0 0
SMALL
GASTEIGER

@<TRIPOS>ATOM
      1 C          60.5852   89.2010    8.4996 C.3     1  UNL1        0.1543
      2 O          58.2883   90.1323    6.8094 O.2     1  UNL1       -0.2526
      3 C          59.6971   90.4358    6.3934 C.2     1  UNL1        0.3043
      4 N          60.8455   89.9702    7.2385 N.am    1  UNL1       -0.2822
      5 N          59.9574   91.2050    5.1322 N.am    1  UNL1       -0.2641
      6 C          58.8089   91.6706    4.2871 C.3     1  UNL1        0.0966
      7 C          59.0693   92.4398    3.0259 C.3     1  UNL1        0.0415
      8 C          60.4781   92.7433    2.6098 C.3     1  UNL1        0.0806
      9 C          61.6265   92.2777    3.4549 C.3     1  UNL1        0.0415
     10 C          61.3662   91.5086    4.7161 C.3     1  UNL1        0.0966
     11 H          61.7702   90.1694    6.9654 H       1  UNL1        0.1514
     12 N          60.7384   93.5125    1.3487 N.am    1  UNL1       -0.2613
     13 C          61.2620   92.8057    0.1337 C.3     1  UNL1        0.1228
     14 C          61.5223   93.5750   -1.1276 C.ar    1  UNL1        0.0112
     15 C          62.0460   92.8682   -2.3426 C.ar    1  UNL1       -0.0014
     16 C          62.3063   93.6373   -3.6037 C.ar    1  UNL1       -0.0002
     17 C          62.0430   95.1134   -3.6499 C.ar    1  UNL1        0.0013
     18 C          61.5193   95.8202   -2.4349 C.ar    1  UNL1        0.0144
     19 C          61.2590   95.0509   -1.1737 C.ar    1  UNL1        0.0492
     20 N          60.7354   95.7577    0.0413 N.am    1  UNL1       -0.2684
     21 C          60.4751   94.9885    1.3025 C.2     1  UNL1        0.3079
     22 O          59.9514   95.6953    2.5175 O.2     1  UNL1       -0.2522
     23 H          60.5625   96.7264    0.0110 H       1  UNL1        0.1564
     24 C          60.4795   87.7053    8.4577 C.2     1  UNL1        0.2439
     25 O          59.6915   87.0394    7.3687 O.2     1  UNL1       -0.2731
     26 N          61.1616   86.8756    9.5046 N.am    1  UNL1       -0.2781
     27 C          61.9495   87.5415   10.5935 C.3     1  UNL1        0.0948
     28 C          62.6317   86.7117   11.6405 C.3     1  UNL1        0.0375
     29 C          62.5260   85.2160   11.5985 C.3     1  UNL1        0.0609
     30 C          61.7380   84.5501   10.5095 C.3     1  UNL1        0.0375
     31 C          61.0559   85.3799    9.4626 C.3     1  UNL1        0.0948
     32 N          63.2081   84.3862   12.6454 N.3     1  UNL1       -0.2738
     33 C          63.9344   85.0535   13.7755 C.3     1  UNL1        0.0720
     34 C          64.6166   84.2237   14.8225 C.3     1  UNL1        0.0174
     35 C          64.5725   82.7266   14.7393 C.3     1  UNL1        0.0029
     36 C          63.8462   82.0594   13.6091 C.3     1  UNL1        0.0174
     37 C          63.1640   82.8892   12.5622 C.3     1  UNL1        0.0720
     38 C          60.4306   89.9275    9.8029 C.3     1  UNL1        0.0552
     39 C          61.6447   90.3928   10.5508 C.2     1  UNL1       -0.0201
     40 C          61.8569   89.9692   11.9740 C.2     1  UNL1       -0.0143
     41 C          63.0711   90.4345   12.7219 C.3     1  UNL1        0.1151
     42 I          63.2833   90.0109   14.1452 I       1  UNL1       -0.0641
     43 C          64.0730   91.3233   12.0467 C.2     1  UNL1        0.1024
     44 N          65.3555   91.9359   12.5263 N.am    1  UNL1       -0.1423
     45 C          65.9359   92.7382   11.3996 C.2     1  UNL1        0.4298
     46 O          67.2153   93.5200   11.4415 O.2     1  UNL1       -0.2238
     47 O          65.0121   92.6213   10.2236 O.3     1  UNL1       -0.4078
     48 C          63.8608   91.7469   10.6234 C.2     1  UNL1        0.1621
     49 C          62.6467   91.2817    9.8755 C.2     1  UNL1        0.0342
@<TRIPOS>BOND
     1     2     3    2
     2     3     4   am
     3     4     1    1
     4     1    38    1
     5    38    39    1
     6    39    40    2
     7    40    41    1
     8    41    42    1
     9    41    43    1
    10    43    44    2
    11    44    45    1
    12    45    46    2
    13    45    47    1
    14    47    48    1
    15    48    49    2
    16     1    24    1
    17    24    25    2
    18    24    26   am
    19    26    27    1
    20    27    28    1
    21    28    29    1
    22    29    32    1
    23    32    33    1
    24    33    34    1
    25    34    35    1
    26    35    36    1
    27    36    37    1
    28    29    30    1
    29    30    31    1
    30     3     5   am
    31     5     6    1
    32     6     7    1
    33     7     8    1
    34     8    12    1
    35    12    13    1
    36    13    14    1
    37    14    15   ar
    38    15    16   ar
    39    16    17   ar
    40    17    18   ar
    41    18    19   ar
    42    19    20    1
    43    20    21   am
    44    21    22    2
    45     8     9    1
    46     9    10    1
    47    49    39    1
    48    31    26    1
    49    10     5    1
    50    48    43    1
    51    37    32    1
    52    21    12   am
    53    19    14   ar
    54     4    11    1
    55    20    23    1
@<TRIPOS>MOLECULE
*****
 49 55 0 0 0
SMALL
GASTEIGER

@<TRIPOS>ATOM
      1 C          59.9234   89.0422    8.5621 C.3     1  UNL1        0.1543
      2 O          57.7925   90.0448    6.7037 O.2     1  UNL1       -0.2526
      3 C          59.2353   90.3409    6.4198 C.2     1  UNL1        0.3043
      4 N          60.3008   89.8395    7.3490 N.am    1  UNL1       -0.2822
      5 N          59.6126   91.1382    5.2066 N.am    1  UNL1       -0.2641
      6 C          58.5471   91.6395    4.2774 C.3     1  UNL1        0.0966
      7 C          58.9245   92.4370    3.0642 C.3     1  UNL1        0.0415
      8 C          60.3673   92.7330    2.7803 C.3     1  UNL1        0.0806
      9 C          61.4328   92.2317    3.7095 C.3     1  UNL1        0.0415
     10 C          61.0554   91.4343    4.9226 C.3     1  UNL1        0.0966
     11 H          61.2477   90.0339    7.1626 H       1  UNL1        0.1514
     12 N          60.7446   93.5304    1.5671 N.am    1  UNL1       -0.2613
     13 C          61.3271   92.8420    0.3685 C.3     1  UNL1        0.1228
     14 C          61.7044   93.6394   -0.8447 C.ar    1  UNL1        0.0112
     15 C          62.2869   92.9510   -2.0434 C.ar    1  UNL1       -0.0014
     16 C          62.6642   93.7484   -3.2565 C.ar    1  UNL1       -0.0002
     17 C          62.4590   95.2343   -3.2711 C.ar    1  UNL1        0.0013
     18 C          61.8765   95.9227   -2.0724 C.ar    1  UNL1        0.0144
     19 C          61.4992   95.1252   -0.8592 C.ar    1  UNL1        0.0492
     20 N          60.9167   95.8136    0.3394 N.am    1  UNL1       -0.2684
     21 C          60.5394   95.0163    1.5526 C.2     1  UNL1        0.3079
     22 O          59.9569   95.7047    2.7512 O.2     1  UNL1       -0.2522
     23 H          60.7821   96.7888    0.3299 H       1  UNL1        0.1564
     24 C          59.8919   89.6981    9.9108 C.2     1  UNL1        0.2439
     25 O          58.5812   89.9237   10.6046 O.2     1  UNL1       -0.2731
     26 N          61.1710   90.1283   10.5656 N.am    1  UNL1       -0.2781
     27 C          62.4815   89.9027    9.8718 C.3     1  UNL1        0.0948
     28 C          63.7607   90.3330   10.5266 C.3     1  UNL1        0.0375
     29 C          63.7292   90.9889   11.8752 C.3     1  UNL1        0.0609
     30 C          62.4185   91.2145   12.5691 C.3     1  UNL1        0.0375
     31 C          61.1394   90.7842   11.9142 C.3     1  UNL1        0.0948
     32 N          65.0082   91.4192   12.5301 N.3     1  UNL1       -0.2738
     33 C          65.2710   91.0691   13.9647 C.3     1  UNL1        0.0720
     34 C          66.5501   91.4993   14.6197 C.3     1  UNL1        0.0174
     35 C          67.5664   92.2797   13.8398 C.3     1  UNL1        0.0029
     36 C          67.3036   92.6298   12.4050 C.3     1  UNL1        0.0174
     37 C          66.0245   92.1995   11.7502 C.3     1  UNL1        0.0720
     38 C          59.5776   87.5888    8.4267 C.3     1  UNL1        0.0552
     39 C          60.6538   86.5491    8.5296 C.2     1  UNL1       -0.0201
     40 C          61.1822   85.8912    7.2895 C.2     1  UNL1       -0.0143
     41 C          62.2585   84.8514    7.3925 C.3     1  UNL1        0.1151
     42 I          62.7869   84.1935    6.1523 I       1  UNL1       -0.0641
     43 C          62.8063   84.4695    8.7356 C.2     1  UNL1        0.1024
     44 N          63.8614   83.4856    9.1464 N.am    1  UNL1       -0.1423
     45 C          63.9850   83.5353   10.6405 C.2     1  UNL1        0.4298
     46 O          64.9227   82.7145   11.4754 O.2     1  UNL1       -0.2238
     47 O          63.0064   84.5500   11.1530 O.3     1  UNL1       -0.4078
     48 C          62.2779   85.1273    9.9757 C.2     1  UNL1        0.1621
     49 C          61.2017   86.1671    9.8728 C.2     1  UNL1        0.0342
@<TRIPOS>BOND
     1     2     3    2
     2     3     4   am
     3     4     1    1
     4     1    38    1
     5    38    39    1
     6    39    40    2
     7    40    41    1
     8    41    42    1
     9    41    43    1
    10    43    44    2
    11    44    45    1
    12    45    46    2
    13    45    47    1
    14    47    48    1
    15    48    49    2
    16     1    24    1
    17    24    25    2
    18    24    26   am
    19    26    27    1
    20    27    28    1
    21    28    29    1
    22    29    32    1
    23    32    33    1
    24    33    34    1
    25    34    35    1
    26    35    36    1
    27    36    37    1
    28    29    30    1
    29    30    31    1
    30     3     5   am
    31     5     6    1
    32     6     7    1
    33     7     8    1
    34     8    12    1
    35    12    13    1
    36    13    14    1
    37    14    15   ar
    38    15    16   ar
    39    16    17   ar
    40    17    18   ar
    41    18    19   ar
    42    19    20    1
    43    20    21   am
    44    21    22    2
    45     8     9    1
    46     9    10    1
    47    49    39    1
    48    31    26    1
    49    10     5    1
    50    48    43    1
    51    37    32    1
    52    21    12   am
    53    19    14   ar
    54     4    11    1
    55    20    23    1
