@<TRIPOS>MOLECULE
*****
 23 25 0 0 0
SMALL
GASTEIGER

@<TRIPOS>ATOM
      1 C          60.6595   89.2600    8.9666 C.3     1  UNL1        0.0042
      2 C          61.2876   88.0595    9.6102 C.3     1  UNL1        0.0462
      3 C          61.5960   86.8431    8.7883 C.3     1  UNL1        0.0255
      4 C          62.2241   85.6426    9.4320 C.3     1  UNL1        0.0937
      5 N          62.5438   85.6584   10.8974 N.am    1  UNL1       -0.2746
      6 C          63.1719   84.4579   11.5410 C.2     1  UNL1        0.2412
      7 O          63.4803   83.2416   10.7192 O.2     1  UNL1       -0.2737
      8 C          62.2354   86.8748   11.7192 C.3     1  UNL1        0.1398
      9 C          61.6073   88.0752   11.0756 C.3     1  UNL1        0.1795
     10 N          61.2990   89.2916   11.8975 N.pl3   1  UNL1       -0.1917
     11 C          59.8978   89.8242   11.9524 C.3     1  UNL1        0.2532
     12 C          62.3918   89.9755   12.6644 C.2     1  UNL1        0.3205
     13 N          62.5277   89.7477   14.1407 N.2     1  UNL1        0.0097
     14 C          63.6206   90.4316   14.9076 C.2     1  UNL1        0.4717
     15 N          64.5775   91.3431   14.1981 N.2     1  UNL1        0.0158
     16 C          64.4415   91.5708   12.7217 C.2     1  UNL1        0.3714
     17 N          65.2300   92.4077   11.7584 N.2     1  UNL1       -0.0339
     18 C          64.6246   92.2411   10.3962 C.2     1  UNL1        0.2323
     19 C          63.4618   91.3012   10.5177 C.2     1  UNL1        0.0486
     20 C          63.3487   90.8870   11.9549 C.3     1  UNL1        0.2428
     21 C          63.4916   84.4737   13.0065 C.3     1  UNL1        0.1901
     22 C          63.5094   83.1911   13.7841 C.1     1  UNL1        0.0830
     23 N          63.5274   81.9085   14.5617 N.1     1  UNL1       -0.1954
@<TRIPOS>BOND
     1     2     1    1
     2     2     3    1
     3     3     4    1
     4     4     5    1
     5     5     6   am
     6     6     7    2
     7     6    21    1
     8    21    22    1
     9    22    23    3
    10     5     8    1
    11     8     9    1
    12     9    10    1
    13    10    11    1
    14    10    12    1
    15    12    13    2
    16    13    14    1
    17    14    15    2
    18    15    16    1
    19    16    17    2
    20    17    18    1
    21    18    19    2
    22    19    20    1
    23     9     2    1
    24    20    12    1
    25    20    16    1
@<TRIPOS>MOLECULE
*****
 23 25 0 0 0
SMALL
GASTEIGER

@<TRIPOS>ATOM
      1 C          60.4631   89.0306    8.7099 C.3     1  UNL1        0.0042
      2 C          61.1064   87.9437    9.5189 C.3     1  UNL1        0.0462
      3 C          61.2404   86.5630    8.9480 C.3     1  UNL1        0.0255
      4 C          61.8838   85.4761    9.7571 C.3     1  UNL1        0.0937
      5 N          62.3932   85.7697   11.1370 N.am    1  UNL1       -0.2746
      6 C          63.0366   84.6828   11.9461 C.2     1  UNL1        0.2412
      7 O          63.1705   83.3021   11.3753 O.2     1  UNL1       -0.2737
      8 C          62.2593   87.1504   11.7079 C.3     1  UNL1        0.1398
      9 C          61.6159   88.2373   10.8989 C.3     1  UNL1        0.1795
     10 N          61.4820   89.6180   11.4698 N.pl3   1  UNL1       -0.1917
     11 C          60.1462   90.1060   11.9468 C.3     1  UNL1        0.2532
     12 C          62.6838   90.5106   11.5637 C.2     1  UNL1        0.3205
     13 N          63.1800   91.2310   10.3451 N.2     1  UNL1        0.0097
     14 C          64.3819   92.1236   10.4390 C.2     1  UNL1        0.4717
     15 N          65.0875   92.2958   11.7514 N.2     1  UNL1        0.0158
     16 C          64.5913   91.5754   12.9700 C.2     1  UNL1        0.3714
     17 N          65.0776   91.5502   14.3887 N.2     1  UNL1       -0.0339
     18 C          64.1765   90.6421   15.1717 C.2     1  UNL1        0.2323
     19 C          63.1330   90.1060   14.2367 C.2     1  UNL1        0.0486
     20 C          63.3895   90.6828   12.8761 C.3     1  UNL1        0.2428
     21 C          63.5460   84.9764   13.3260 C.3     1  UNL1        0.1901
     22 C          63.7056   83.8636   14.3191 C.1     1  UNL1        0.0830
     23 N          63.8651   82.7508   15.3122 N.1     1  UNL1       -0.1954
@<TRIPOS>BOND
     1     2     1    1
     2     2     3    1
     3     3     4    1
     4     4     5    1
     5     5     6   am
     6     6     7    2
     7     6    21    1
     8    21    22    1
     9    22    23    3
    10     5     8    1
    11     8     9    1
    12     9    10    1
    13    10    11    1
    14    10    12    1
    15    12    13    2
    16    13    14    1
    17    14    15    2
    18    15    16    1
    19    16    17    2
    20    17    18    1
    21    18    19    2
    22    19    20    1
    23     9     2    1
    24    20    12    1
    25    20    16    1
@<TRIPOS>MOLECULE
*****
 23 25 0 0 0
SMALL
GASTEIGER

@<TRIPOS>ATOM
      1 C          62.7738   90.7751    9.6471 C.3     1  UNL1        0.0042
      2 C          63.1395   90.8495   11.0999 C.3     1  UNL1        0.0462
      3 C          64.3411   91.6370   11.5314 C.3     1  UNL1        0.0255
      4 C          64.7068   91.7114   12.9843 C.3     1  UNL1        0.0937
      5 N          63.8711   90.9983   14.0055 N.am    1  UNL1       -0.2746
      6 C          64.2368   91.0727   15.4584 C.2     1  UNL1        0.2412
      7 O          65.4383   91.8602   15.8899 O.2     1  UNL1       -0.2737
      8 C          62.6696   90.2108   13.5740 C.3     1  UNL1        0.1398
      9 C          62.3039   90.1364   12.1212 C.3     1  UNL1        0.1795
     10 N          61.1023   89.3489   11.6897 N.pl3   1  UNL1       -0.1917
     11 C          59.7286   89.9308   11.8455 C.3     1  UNL1        0.2532
     12 C          61.2745   87.9794   11.1023 C.2     1  UNL1        0.3205
     13 N          62.0532   86.9362   11.8475 N.2     1  UNL1        0.0097
     14 C          62.2254   85.5668   11.2601 C.2     1  UNL1        0.4717
     15 N          61.6190   85.2406    9.9275 N.2     1  UNL1        0.0158
     16 C          60.8403   86.2839    9.1823 C.2     1  UNL1        0.3714
     17 N          60.1330   86.2545    7.8598 N.2     1  UNL1       -0.0339
     18 C          59.5236   87.6057    7.6299 C.2     1  UNL1        0.2323
     19 C          59.8544   88.4702    8.8103 C.2     1  UNL1        0.0486
     20 C          60.6681   87.6533    9.7697 C.3     1  UNL1        0.2428
     21 C          63.4011   90.3596   16.4796 C.3     1  UNL1        0.1901
     22 C          63.3139   88.8622   16.4642 C.1     1  UNL1        0.0830
     23 N          63.2267   87.3648   16.4488 N.1     1  UNL1       -0.1954
@<TRIPOS>BOND
     1     2     1    1
     2     2     3    1
     3     3     4    1
     4     4     5    1
     5     5     6   am
     6     6     7    2
     7     6    21    1
     8    21    22    1
     9    22    23    3
    10     5     8    1
    11     8     9    1
    12     9    10    1
    13    10    11    1
    14    10    12    1
    15    12    13    2
    16    13    14    1
    17    14    15    2
    18    15    16    1
    19    16    17    2
    20    17    18    1
    21    18    19    2
    22    19    20    1
    23     9     2    1
    24    20    12    1
    25    20    16    1
@<TRIPOS>MOLECULE
*****
 23 25 0 0 0
SMALL
GASTEIGER

@<TRIPOS>ATOM
      1 C          63.1047   85.6154    8.6165 C.3     1  UNL1        0.0042
      2 C          63.1340   84.7961    9.8726 C.3     1  UNL1        0.0462
      3 C          63.6913   83.4036    9.8470 C.3     1  UNL1        0.0255
      4 C          63.7205   82.5843   11.1032 C.3     1  UNL1        0.0937
      5 N          63.1925   83.1574   12.3849 N.am    1  UNL1       -0.2746
      6 C          63.2217   82.3381   13.6410 C.2     1  UNL1        0.2412
      7 O          63.7790   80.9457   13.6155 O.2     1  UNL1       -0.2737
      8 C          62.6352   84.5498   12.4104 C.3     1  UNL1        0.1398
      9 C          62.6060   85.3691   11.1544 C.3     1  UNL1        0.1795
     10 N          62.0487   86.7616   11.1799 N.pl3   1  UNL1       -0.1917
     11 C          60.7610   87.0672   10.4739 C.3     1  UNL1        0.2532
     12 C          62.7792   87.8485   11.9115 C.2     1  UNL1        0.3205
     13 N          63.4150   87.5623   13.2396 N.2     1  UNL1        0.0097
     14 C          64.1455   88.6491   13.9712 C.2     1  UNL1        0.4717
     15 N          64.2401   90.0221   13.3747 N.2     1  UNL1        0.0158
     16 C          63.6042   90.3083   12.0466 C.2     1  UNL1        0.3714
     17 N          63.5327   91.5552   11.2159 N.2     1  UNL1       -0.0339
     18 C          62.7581   91.2391    9.9709 C.2     1  UNL1        0.2323
     19 C          62.3508   89.7967   10.0322 C.2     1  UNL1        0.0486
     20 C          62.8738   89.2215   11.3151 C.3     1  UNL1        0.2428
     21 C          62.6937   82.9112   14.9227 C.3     1  UNL1        0.1901
     22 C          63.3016   84.1583   15.4932 C.1     1  UNL1        0.0830
     23 N          63.9093   85.4054   16.0636 N.1     1  UNL1       -0.1954
@<TRIPOS>BOND
     1     2     1    1
     2     2     3    1
     3     3     4    1
     4     4     5    1
     5     5     6   am
     6     6     7    2
     7     6    21    1
     8    21    22    1
     9    22    23    3
    10     5     8    1
    11     8     9    1
    12     9    10    1
    13    10    11    1
    14    10    12    1
    15    12    13    2
    16    13    14    1
    17    14    15    2
    18    15    16    1
    19    16    17    2
    20    17    18    1
    21    18    19    2
    22    19    20    1
    23     9     2    1
    24    20    12    1
    25    20    16    1
@<TRIPOS>MOLECULE
*****
 23 25 0 0 0
SMALL
GASTEIGER

@<TRIPOS>ATOM
      1 C          61.0512   89.4859    8.8937 C.3     1  UNL1        0.0042
      2 C          62.0062   89.9399    9.9575 C.3     1  UNL1        0.0462
      3 C          62.7819   91.2109    9.7763 C.3     1  UNL1        0.0255
      4 C          63.7369   91.6649   10.8402 C.3     1  UNL1        0.0937
      5 N          63.9163   90.8478   12.0852 N.am    1  UNL1       -0.2746
      6 C          64.8713   91.3017   13.1491 C.2     1  UNL1        0.2412
      7 O          65.6470   92.5727   12.9679 O.2     1  UNL1       -0.2737
      8 C          63.1406   89.5768   12.2664 C.3     1  UNL1        0.1398
      9 C          62.1856   89.1229   11.2026 C.3     1  UNL1        0.1795
     10 N          61.4098   87.8518   11.3838 N.pl3   1  UNL1       -0.1917
     11 C          59.9159   87.8965   11.5107 C.3     1  UNL1        0.2532
     12 C          62.1281   86.5361   11.4382 C.2     1  UNL1        0.3205
     13 N          62.4909   85.9338   12.7632 N.2     1  UNL1        0.0097
     14 C          63.2091   84.6181   12.8176 C.2     1  UNL1        0.4717
     15 N          63.5647   83.9046   11.5469 N.2     1  UNL1        0.0158
     16 C          63.2019   84.5070   10.2219 C.2     1  UNL1        0.3714
     17 N          63.4199   84.0394    8.8134 N.2     1  UNL1       -0.0339
     18 C          62.8364   85.0660    7.8885 C.2     1  UNL1        0.2323
     19 C          62.2577   86.1682    8.7255 C.2     1  UNL1        0.0486
     20 C          62.4837   85.8226   10.1675 C.3     1  UNL1        0.2428
     21 C          65.0507   90.4847   14.3942 C.3     1  UNL1        0.1901
     22 C          64.1596   90.7168   15.5784 C.1     1  UNL1        0.0830
     23 N          63.2686   90.9491   16.7625 N.1     1  UNL1       -0.1954
@<TRIPOS>BOND
     1     2     1    1
     2     2     3    1
     3     3     4    1
     4     4     5    1
     5     5     6   am
     6     6     7    2
     7     6    21    1
     8    21    22    1
     9    22    23    3
    10     5     8    1
    11     8     9    1
    12     9    10    1
    13    10    11    1
    14    10    12    1
    15    12    13    2
    16    13    14    1
    17    14    15    2
    18    15    16    1
    19    16    17    2
    20    17    18    1
    21    18    19    2
    22    19    20    1
    23     9     2    1
    24    20    12    1
    25    20    16    1
@<TRIPOS>MOLECULE
*****
 23 25 0 0 0
SMALL
GASTEIGER

@<TRIPOS>ATOM
      1 C          64.0287   82.5843   14.1450 C.3     1  UNL1        0.0042
      2 C          63.4783   83.5747   13.1622 C.3     1  UNL1        0.0462
      3 C          62.6637   83.1001   11.9954 C.3     1  UNL1        0.0255
      4 C          62.1133   84.0905   11.0126 C.3     1  UNL1        0.0937
      5 N          62.3774   85.5556   11.1964 N.am    1  UNL1       -0.2746
      6 C          61.8270   86.5461   10.2136 C.2     1  UNL1        0.2412
      7 O          61.0124   86.0715    9.0469 O.2     1  UNL1       -0.2737
      8 C          63.1920   86.0302   12.3632 C.3     1  UNL1        0.1398
      9 C          63.7423   85.0398   13.3460 C.3     1  UNL1        0.1795
     10 N          64.5570   85.5144   14.5128 N.pl3   1  UNL1       -0.1917
     11 C          66.0224   85.2015   14.5812 C.3     1  UNL1        0.2532
     12 C          63.9061   86.3019   15.6111 C.2     1  UNL1        0.3205
     13 N          63.3103   85.5926   16.7909 N.2     1  UNL1        0.0097
     14 C          62.6594   86.3801   17.8892 C.2     1  UNL1        0.4717
     15 N          62.6043   87.8769   17.8077 N.2     1  UNL1        0.0158
     16 C          63.2002   88.5861   16.6278 C.2     1  UNL1        0.3714
     17 N          63.2960   90.0408   16.2746 N.2     1  UNL1       -0.0339
     18 C          64.0060   90.1524   14.9581 C.2     1  UNL1        0.2323
     19 C          64.3491   88.7666   14.4976 C.2     1  UNL1        0.0486
     20 C          63.8510   87.7986   15.5296 C.3     1  UNL1        0.2428
     21 C          62.0911   88.0111   10.3974 C.3     1  UNL1        0.1901
     22 C          61.2132   88.8237   11.3025 C.1     1  UNL1        0.0830
     23 N          60.3353   89.6361   12.2076 N.1     1  UNL1       -0.1954
@<TRIPOS>BOND
     1     2     1    1
     2     2     3    1
     3     3     4    1
     4     4     5    1
     5     5     6   am
     6     6     7    2
     7     6    21    1
     8    21    22    1
     9    22    23    3
    10     5     8    1
    11     8     9    1
    12     9    10    1
    13    10    11    1
    14    10    12    1
    15    12    13    2
    16    13    14    1
    17    14    15    2
    18    15    16    1
    19    16    17    2
    20    17    18    1
    21    18    19    2
    22    19    20    1
    23     9     2    1
    24    20    12    1
    25    20    16    1
@<TRIPOS>MOLECULE
*****
 23 25 0 0 0
SMALL
GASTEIGER

@<TRIPOS>ATOM
      1 C          61.1484   86.0273    9.2469 C.3     1  UNL1        0.0042
      2 C          61.7441   86.9967   10.2243 C.3     1  UNL1        0.0462
      3 C          61.4787   88.4660   10.0799 C.3     1  UNL1        0.0255
      4 C          62.0744   89.4354   11.0574 C.3     1  UNL1        0.0937
      5 N          62.9356   88.9355   12.1792 N.am    1  UNL1       -0.2746
      6 C          63.5313   89.9049   13.1567 C.2     1  UNL1        0.2412
      7 O          63.2659   91.3741   13.0123 O.2     1  UNL1       -0.2737
      8 C          63.2010   87.4662   12.3236 C.3     1  UNL1        0.1398
      9 C          62.6053   86.4969   11.3462 C.3     1  UNL1        0.1795
     10 N          62.8707   85.0276   11.4906 N.pl3   1  UNL1       -0.1917
     11 C          63.2150   84.2055   10.2841 C.3     1  UNL1        0.2532
     12 C          62.7919   84.3804   12.8416 C.2     1  UNL1        0.3205
     13 N          62.7783   85.2276   14.0794 N.2     1  UNL1        0.0097
     14 C          62.6994   84.5804   15.4303 C.2     1  UNL1        0.4717
     15 N          62.6342   83.0861   15.5434 N.2     1  UNL1        0.0158
     16 C          62.6478   82.2390   14.3055 C.2     1  UNL1        0.3714
     17 N          62.5952   80.7533   14.1054 N.2     1  UNL1       -0.0339
     18 C          62.6414   80.4822   12.6309 C.2     1  UNL1        0.2323
     19 C          62.7227   81.8005   11.9196 C.2     1  UNL1        0.0486
     20 C          62.7267   82.8861   12.9547 C.3     1  UNL1        0.2428
     21 C          64.3924   89.4050   14.2786 C.3     1  UNL1        0.1901
     22 C          63.7610   88.9189   15.5494 C.1     1  UNL1        0.0830
     23 N          63.1295   88.4328   16.8202 N.1     1  UNL1       -0.1954
@<TRIPOS>BOND
     1     2     1    1
     2     2     3    1
     3     3     4    1
     4     4     5    1
     5     5     6   am
     6     6     7    2
     7     6    21    1
     8    21    22    1
     9    22    23    3
    10     5     8    1
    11     8     9    1
    12     9    10    1
    13    10    11    1
    14    10    12    1
    15    12    13    2
    16    13    14    1
    17    14    15    2
    18    15    16    1
    19    16    17    2
    20    17    18    1
    21    18    19    2
    22    19    20    1
    23     9     2    1
    24    20    12    1
    25    20    16    1
@<TRIPOS>MOLECULE
*****
 23 25 0 0 0
SMALL
GASTEIGER

@<TRIPOS>ATOM
      1 C          62.7476   86.2495    8.4808 C.3     1  UNL1        0.0042
      2 C          62.8148   85.4881    9.7713 C.3     1  UNL1        0.0462
      3 C          63.5133   84.1616    9.8240 C.3     1  UNL1        0.0255
      4 C          63.5805   83.4001   11.1146 C.3     1  UNL1        0.0937
      5 N          62.9493   83.9650   12.3524 N.am    1  UNL1       -0.2746
      6 C          63.0165   83.2035   13.6430 C.2     1  UNL1        0.2412
      7 O          63.7150   81.8772   13.6957 O.2     1  UNL1       -0.2737
      8 C          62.2508   85.2914   12.2997 C.3     1  UNL1        0.1398
      9 C          62.1836   86.0529   11.0092 C.3     1  UNL1        0.1795
     10 N          61.4850   87.3793   10.9566 N.pl3   1  UNL1       -0.1917
     11 C          59.9995   87.4373   10.7571 C.3     1  UNL1        0.2532
     12 C          62.2721   88.6478   11.1033 C.2     1  UNL1        0.3205
     13 N          62.2154   89.6940   10.0299 N.2     1  UNL1        0.0097
     14 C          63.0025   90.9625   10.1766 C.2     1  UNL1        0.4717
     15 N          63.8463   91.1847   11.3967 N.2     1  UNL1        0.0158
     16 C          63.9029   90.1384   12.4701 C.2     1  UNL1        0.3714
     17 N          64.6405   90.0779   13.7748 N.2     1  UNL1       -0.0339
     18 C          64.3094   88.7721   14.4345 C.2     1  UNL1        0.2323
     19 C          63.3670   88.0256   13.5374 C.2     1  UNL1        0.0486
     20 C          63.1159   88.8700   12.3234 C.3     1  UNL1        0.2428
     21 C          62.3853   83.7684   14.8809 C.3     1  UNL1        0.1901
     22 C          63.1102   84.8061   15.6858 C.1     1  UNL1        0.0830
     23 N          63.8352   85.8437   16.4907 N.1     1  UNL1       -0.1954
@<TRIPOS>BOND
     1     2     1    1
     2     2     3    1
     3     3     4    1
     4     4     5    1
     5     5     6   am
     6     6     7    2
     7     6    21    1
     8    21    22    1
     9    22    23    3
    10     5     8    1
    11     8     9    1
    12     9    10    1
    13    10    11    1
    14    10    12    1
    15    12    13    2
    16    13    14    1
    17    14    15    2
    18    15    16    1
    19    16    17    2
    20    17    18    1
    21    18    19    2
    22    19    20    1
    23     9     2    1
    24    20    12    1
    25    20    16    1
@<TRIPOS>MOLECULE
*****
 23 25 0 0 0
SMALL
GASTEIGER

@<TRIPOS>ATOM
      1 C          61.2193   89.6542    8.8127 C.3     1  UNL1        0.0042
      2 C          62.0760   89.9751   10.0013 C.3     1  UNL1        0.0462
      3 C          62.8060   91.2838   10.0683 C.3     1  UNL1        0.0255
      4 C          63.6628   91.6047   11.2570 C.3     1  UNL1        0.0937
      5 N          63.7895   90.6170   12.3787 N.am    1  UNL1       -0.2746
      6 C          64.6462   90.9379   13.5675 C.2     1  UNL1        0.2412
      7 O          65.3762   92.2466   13.6345 O.2     1  UNL1       -0.2737
      8 C          63.0595   89.3084   12.3117 C.3     1  UNL1        0.1398
      9 C          62.2028   88.9874   11.1231 C.3     1  UNL1        0.1795
     10 N          61.4728   87.6787   11.0561 N.pl3   1  UNL1       -0.1917
     11 C          60.0643   87.5788   11.5622 C.3     1  UNL1        0.2532
     12 C          62.1513   86.4699   10.4830 C.2     1  UNL1        0.3205
     13 N          62.3563   86.3567    9.0014 N.2     1  UNL1        0.0097
     14 C          63.0348   85.1479    8.4283 C.2     1  UNL1        0.4717
     15 N          63.5083   84.0523    9.3368 N.2     1  UNL1        0.0158
     16 C          63.3032   84.1655   10.8185 C.2     1  UNL1        0.3714
     17 N          63.6603   83.2525   11.9538 N.2     1  UNL1       -0.0339
     18 C          63.2025   83.8970   13.2285 C.2     1  UNL1        0.2323
     19 C          62.5624   85.2084   12.8810 C.2     1  UNL1        0.0486
     20 C          62.6247   85.3743   11.3915 C.3     1  UNL1        0.2428
     21 C          64.7729   89.9502   14.6892 C.3     1  UNL1        0.1901
     22 C          63.5911   89.6530   15.5639 C.1     1  UNL1        0.0830
     23 N          62.4093   89.3560   16.4387 N.1     1  UNL1       -0.1954
@<TRIPOS>BOND
     1     2     1    1
     2     2     3    1
     3     3     4    1
     4     4     5    1
     5     5     6   am
     6     6     7    2
     7     6    21    1
     8    21    22    1
     9    22    23    3
    10     5     8    1
    11     8     9    1
    12     9    10    1
    13    10    11    1
    14    10    12    1
    15    12    13    2
    16    13    14    1
    17    14    15    2
    18    15    16    1
    19    16    17    2
    20    17    18    1
    21    18    19    2
    22    19    20    1
    23     9     2    1
    24    20    12    1
    25    20    16    1
