@<TRIPOS>MOLECULE
*****
 43 46 0 0 0
SMALL
GASTEIGER

@<TRIPOS>ATOM
      1 C          62.7727   89.7076   12.7138 C.3     1  UNL1        0.1485
      2 O          61.4255   89.7991   13.3668 O.3     1  UNL1       -0.3810
      3 H          60.7636   89.3670   12.8046 H       1  UNL1        0.2105
      4 C          62.9187   89.0200   11.3886 C.3     1  UNL1        0.1255
      5 C          61.3669   87.8174    9.6869 C.2     1  UNL1        0.2499
      6 O          60.2479   87.8666    8.6892 O.2     1  UNL1       -0.2699
      7 N          61.7997   89.0693   10.3908 N.am    1  UNL1       -0.2620
      8 C          63.6094   82.5974   12.5988 C.ar    1  UNL1        0.2898
      9 N          63.9999   82.6573   11.1518 N.ar    1  UNL1       -0.1948
     10 C          63.4253   83.9141   10.5683 C.ar    1  UNL1        0.1202
     11 C          63.4847   84.4984    9.1881 C.ar    1  UNL1        0.0225
     12 C          62.7986   85.7995    8.8943 C.ar    1  UNL1        0.0063
     13 C          62.0531   86.5163    9.9808 C.ar    1  UNL1        0.0567
     14 C          61.9937   85.9320   11.3610 C.ar    1  UNL1        0.0437
     15 C          62.6798   84.6309   11.6547 C.ar    1  UNL1        0.1662
     16 O          62.7936   83.8171   12.9097 O.2     1  UNL1       -0.4239
     17 N          63.9713   81.5088   13.5653 N.pl3   1  UNL1       -0.2770
     18 H          64.7853   81.5878   14.1134 H       1  UNL1        0.1520
     19 C          63.0930   80.3001   13.6968 C.3     1  UNL1        0.1694
     20 C          60.1409   80.6295   14.1174 C.1     1  UNL1       -0.0124
     21 C          61.6170   80.4648   13.9071 C.1     1  UNL1       -0.0558
     22 C          61.1136   90.3704   10.0970 C.3     1  UNL1        0.1718
     23 C          59.8874   90.7623   10.8670 C.1     1  UNL1       -0.0556
     24 C          58.6612   91.1542   11.6369 C.1     1  UNL1       -0.0124
     25 C          63.9740   90.3036   13.3858 C.3     1  UNL1        0.1075
     26 N          64.9457   91.1266   12.5930 N.am    1  UNL1       -0.2695
     27 C          65.7033   92.2383   13.2564 C.2     1  UNL1        0.4020
     28 O          65.4892   92.5270   14.7127 O.2     1  UNL1       -0.2264
     29 H          65.0863   90.9371   11.6372 H       1  UNL1        0.1528
     30 O          66.6749   93.0613   12.4636 O.3     1  UNL1       -0.4291
     31 C          66.2534   94.3883   11.9055 C.3     1  UNL1        0.2447
     32 C          66.7177   94.8105   10.5431 C.ar    1  UNL1        0.0714
     33 C          67.2868   93.9098    9.4871 C.ar    1  UNL1        0.1053
     34 N          67.6153   94.7501    8.2888 N.ar    1  UNL1       -0.2350
     35 C          67.2493   96.1702    8.6042 C.ar    1  UNL1        0.1343
     36 S          66.6946   96.2075    9.9974 S.2     1  UNL1       -0.0652
     37 C          64.2037   90.0765   14.8506 C.3     1  UNL1        0.0485
     38 C          63.9341   88.7291   15.4521 C.ar    1  UNL1       -0.0204
     39 C          63.1353   88.6186   16.7168 C.ar    1  UNL1       -0.0042
     40 C          62.8656   87.2712   17.3183 C.ar    1  UNL1       -0.0003
     41 C          63.3948   86.0343   16.6550 C.ar    1  UNL1       -0.0000
     42 C          64.1936   86.1448   15.3903 C.ar    1  UNL1       -0.0003
     43 C          64.4632   87.4922   14.7888 C.ar    1  UNL1       -0.0042
@<TRIPOS>BOND
     1    20    21    3
     2    21    19    1
     3    19    17    1
     4    17     8    1
     5     8     9   ar
     6     9    10   ar
     7    10    11   ar
     8    11    12   ar
     9    12    13   ar
    10    13     5    1
    11     5     6    2
    12     5     7   am
    13     7    22    1
    14    22    23    1
    15    23    24    3
    16     7     4    1
    17     4     1    1
    18     1     2    1
    19     1    25    1
    20    25    37    1
    21    37    38    1
    22    38    39   ar
    23    39    40   ar
    24    40    41   ar
    25    41    42   ar
    26    42    43   ar
    27    25    26    1
    28    26    27   am
    29    27    28    2
    30    27    30    1
    31    30    31    1
    32    31    32    1
    33    32    33   ar
    34    33    34   ar
    35    34    35   ar
    36    35    36   ar
    37    13    14   ar
    38    14    15   ar
    39    15    16   ar
    40    16     8   ar
    41    15    10   ar
    42    43    38   ar
    43    36    32   ar
    44    17    18    1
    45     2     3    1
    46    26    29    1
@<TRIPOS>MOLECULE
*****
 43 46 0 0 0
SMALL
GASTEIGER

@<TRIPOS>ATOM
      1 C          61.6396   89.6286   11.3395 C.3     1  UNL1        0.1485
      2 O          60.7457   90.6988   11.8921 O.3     1  UNL1       -0.3810
      3 H          61.2524   91.2627   12.4972 H       1  UNL1        0.2105
      4 C          63.0801   89.5667   11.7537 C.3     1  UNL1        0.1255
      5 C          64.1282   90.5970   13.8960 C.2     1  UNL1        0.2499
      6 O          64.7554   91.7607   14.6049 O.2     1  UNL1       -0.2699
      7 N          63.7073   90.7303   12.4625 N.am    1  UNL1       -0.2620
      8 C          63.9014   84.4012   15.4185 C.ar    1  UNL1        0.2898
      9 N          63.4138   85.2817   16.5308 N.ar    1  UNL1       -0.1948
     10 C          63.5092   86.7060   16.0703 C.ar    1  UNL1        0.1202
     11 C          63.1690   88.0031   16.7424 C.ar    1  UNL1        0.0225
     12 C          63.3753   89.3000   16.0177 C.ar    1  UNL1        0.0063
     13 C          63.9218   89.2999   14.6208 C.ar    1  UNL1        0.0567
     14 C          64.2621   88.0029   13.9486 C.ar    1  UNL1        0.0437
     15 C          64.0557   86.7059   14.6734 C.ar    1  UNL1        0.1662
     16 O          64.2981   85.2815   14.2706 O.2     1  UNL1       -0.4239
     17 N          63.9787   82.9035   15.4489 N.pl3   1  UNL1       -0.2770
     18 H          64.2862   82.4429   16.2629 H       1  UNL1        0.1520
     19 C          63.5876   82.1077   14.2392 C.3     1  UNL1        0.1694
     20 C          60.8511   80.8906   14.0647 C.1     1  UNL1       -0.0124
     21 C          62.2194   81.4991   14.1519 C.1     1  UNL1       -0.0558
     22 C          63.9136   92.0274   11.7378 C.3     1  UNL1        0.1718
     23 C          65.2535   92.3512   11.1465 C.1     1  UNL1       -0.0556
     24 C          66.5934   92.6750   10.5552 C.1     1  UNL1       -0.0124
     25 C          61.0932   88.6201   10.3728 C.3     1  UNL1        0.1075
     26 N          60.8143   89.0165    8.9532 N.am    1  UNL1       -0.2695
     27 C          59.7309   88.3246    8.1804 C.2     1  UNL1        0.4020
     28 O          58.9263   87.2362    8.8270 O.2     1  UNL1       -0.2264
     29 H          61.3424   89.7308    8.5288 H       1  UNL1        0.1528
     30 O          59.4520   88.7209    6.7608 O.3     1  UNL1       -0.4291
     31 C          58.6100   89.9280    6.4707 C.3     1  UNL1        0.2447
     32 C          59.0328   90.8997    5.4091 C.ar    1  UNL1        0.0714
     33 C          58.1280   91.8231    4.6483 C.ar    1  UNL1        0.1053
     34 N          58.9705   92.6128    3.6909 N.ar    1  UNL1       -0.2350
     35 C          60.3960   92.1774    3.8599 C.ar    1  UNL1        0.1343
     36 S          60.4344   91.1186    4.9219 S.2     1  UNL1       -0.0652
     37 C          60.8257   87.2154   10.8256 C.3     1  UNL1        0.0485
     38 C          61.7829   86.1171   10.4685 C.ar    1  UNL1       -0.0204
     39 C          62.2200   85.1339   11.5135 C.ar    1  UNL1       -0.0042
     40 C          63.1772   84.0356   11.1564 C.ar    1  UNL1       -0.0003
     41 C          63.6973   83.9206    9.7542 C.ar    1  UNL1       -0.0000
     42 C          63.2602   84.9038    8.7091 C.ar    1  UNL1       -0.0003
     43 C          62.3030   86.0021    9.0663 C.ar    1  UNL1       -0.0042
@<TRIPOS>BOND
     1    20    21    3
     2    21    19    1
     3    19    17    1
     4    17     8    1
     5     8     9   ar
     6     9    10   ar
     7    10    11   ar
     8    11    12   ar
     9    12    13   ar
    10    13     5    1
    11     5     6    2
    12     5     7   am
    13     7    22    1
    14    22    23    1
    15    23    24    3
    16     7     4    1
    17     4     1    1
    18     1     2    1
    19     1    25    1
    20    25    37    1
    21    37    38    1
    22    38    39   ar
    23    39    40   ar
    24    40    41   ar
    25    41    42   ar
    26    42    43   ar
    27    25    26    1
    28    26    27   am
    29    27    28    2
    30    27    30    1
    31    30    31    1
    32    31    32    1
    33    32    33   ar
    34    33    34   ar
    35    34    35   ar
    36    35    36   ar
    37    13    14   ar
    38    14    15   ar
    39    15    16   ar
    40    16     8   ar
    41    15    10   ar
    42    43    38   ar
    43    36    32   ar
    44    17    18    1
    45     2     3    1
    46    26    29    1
@<TRIPOS>MOLECULE
*****
 43 46 0 0 0
SMALL
GASTEIGER

@<TRIPOS>ATOM
      1 C          62.4401   85.6648   11.3745 C.3     1  UNL1        0.1485
      2 O          63.1231   85.0445   10.1917 O.3     1  UNL1       -0.3810
      3 H          63.3875   84.1372   10.4102 H       1  UNL1        0.2105
      4 C          62.2652   84.8760   12.6383 C.3     1  UNL1        0.1255
      5 C          64.1726   84.3339   14.3171 C.2     1  UNL1        0.2499
      6 O          65.2667   83.4235   14.7904 O.2     1  UNL1       -0.2699
      7 N          63.3594   83.9656   13.1117 N.am    1  UNL1       -0.2620
      8 C          63.8720   90.4819   16.0110 C.ar    1  UNL1        0.2898
      9 N          63.2014   89.5812   17.0055 N.ar    1  UNL1       -0.1948
     10 C          63.3299   88.1701   16.5133 C.ar    1  UNL1        0.1202
     11 C          62.8608   86.8628   17.0800 C.ar    1  UNL1        0.0225
     12 C          63.1417   85.5842   16.3479 C.ar    1  UNL1        0.0063
     13 C          63.8917   85.6127   15.0492 C.ar    1  UNL1        0.0567
     14 C          64.3607   86.9199   14.4825 C.ar    1  UNL1        0.0437
     15 C          64.0798   88.1986   15.2146 C.ar    1  UNL1        0.1662
     16 O          64.4149   89.6273   14.9041 O.2     1  UNL1       -0.4239
     17 N          63.9806   91.9749   16.1065 N.pl3   1  UNL1       -0.2770
     18 H          63.3124   92.5464   15.6637 H       1  UNL1        0.1520
     19 C          65.1074   92.5971   16.8766 C.3     1  UNL1        0.1694
     20 C          67.9122   92.4367   15.8242 C.1     1  UNL1       -0.0124
     21 C          66.5098   92.5169   16.3504 C.1     1  UNL1       -0.0558
     22 C          63.6403   82.6868   12.3796 C.3     1  UNL1        0.1718
     23 C          63.0002   81.4077   12.8315 C.1     1  UNL1       -0.0556
     24 C          62.3602   80.1286   13.2834 C.1     1  UNL1       -0.0124
     25 C          61.9321   87.0738   11.2934 C.3     1  UNL1        0.1075
     26 N          62.8660   88.2228   11.5340 N.am    1  UNL1       -0.2695
     27 C          62.3544   89.4869   12.1585 C.2     1  UNL1        0.4020
     28 O          60.9090   89.6022   12.5426 O.2     1  UNL1       -0.2264
     29 H          63.8147   88.1471   11.2819 H       1  UNL1        0.1528
     30 O          63.2883   90.6359   12.3991 O.3     1  UNL1       -0.4291
     31 C          63.9709   91.3026   11.2417 C.3     1  UNL1        0.2447
     32 C          64.9892   92.3759   11.4886 C.ar    1  UNL1        0.0714
     33 C          65.7075   92.6294   12.7808 C.ar    1  UNL1        0.1053
     34 N          66.6303   93.7944   12.5775 N.ar    1  UNL1       -0.2350
     35 C          66.4823   94.2610   11.1596 C.ar    1  UNL1        0.1343
     36 S          65.4680   93.3843   10.4866 S.2     1  UNL1       -0.0652
     37 C          60.4903   87.3338   10.9718 C.3     1  UNL1        0.0485
     38 C          60.0884   87.7040    9.5749 C.ar    1  UNL1       -0.0204
     39 C          60.1641   89.1334    9.1265 C.ar    1  UNL1       -0.0042
     40 C          59.7622   89.5035    7.7295 C.ar    1  UNL1       -0.0003
     41 C          59.2845   88.4443    6.7810 C.ar    1  UNL1       -0.0000
     42 C          59.2088   87.0149    7.2294 C.ar    1  UNL1       -0.0003
     43 C          59.6107   86.6448    8.6263 C.ar    1  UNL1       -0.0042
@<TRIPOS>BOND
     1    20    21    3
     2    21    19    1
     3    19    17    1
     4    17     8    1
     5     8     9   ar
     6     9    10   ar
     7    10    11   ar
     8    11    12   ar
     9    12    13   ar
    10    13     5    1
    11     5     6    2
    12     5     7   am
    13     7    22    1
    14    22    23    1
    15    23    24    3
    16     7     4    1
    17     4     1    1
    18     1     2    1
    19     1    25    1
    20    25    37    1
    21    37    38    1
    22    38    39   ar
    23    39    40   ar
    24    40    41   ar
    25    41    42   ar
    26    42    43   ar
    27    25    26    1
    28    26    27   am
    29    27    28    2
    30    27    30    1
    31    30    31    1
    32    31    32    1
    33    32    33   ar
    34    33    34   ar
    35    34    35   ar
    36    35    36   ar
    37    13    14   ar
    38    14    15   ar
    39    15    16   ar
    40    16     8   ar
    41    15    10   ar
    42    43    38   ar
    43    36    32   ar
    44    17    18    1
    45     2     3    1
    46    26    29    1
@<TRIPOS>MOLECULE
*****
 43 46 0 0 0
SMALL
GASTEIGER

@<TRIPOS>ATOM
      1 C          67.2024   91.8861   12.7889 C.3     1  UNL1        0.1485
      2 O          68.6991   91.9512   12.7154 O.3     1  UNL1       -0.3810
      3 H          69.0816   91.3742   13.3948 H       1  UNL1        0.2105
      4 C          66.5390   91.0140   13.8133 C.3     1  UNL1        0.1255
      5 C          64.4517   90.8528   15.3519 C.2     1  UNL1        0.2499
      6 O          63.5475   91.4612   16.3825 O.2     1  UNL1       -0.2699
      7 N          65.6347   91.6224   14.8439 N.am    1  UNL1       -0.2620
      8 C          63.6699   84.5369   14.8464 C.ar    1  UNL1        0.2898
      9 N          63.4042   85.2513   13.5544 N.ar    1  UNL1       -0.1948
     10 C          63.6153   86.7185   13.7841 C.ar    1  UNL1        0.1202
     11 C          63.4980   87.9041   12.8728 C.ar    1  UNL1        0.0225
     12 C          63.7768   89.2822   13.3954 C.ar    1  UNL1        0.0063
     13 C          64.1729   89.4746   14.8293 C.ar    1  UNL1        0.0567
     14 C          64.2902   88.2890   15.7406 C.ar    1  UNL1        0.0437
     15 C          64.0114   86.9109   15.2180 C.ar    1  UNL1        0.1662
     16 O          64.0452   85.5626   15.8745 O.2     1  UNL1       -0.4239
     17 N          63.5766   83.0567   15.0707 N.pl3   1  UNL1       -0.2770
     18 H          63.8026   82.6770   15.9505 H       1  UNL1        0.1520
     19 C          63.1392   82.1550   13.9547 C.3     1  UNL1        0.1694
     20 C          60.5172   80.7085   14.1350 C.1     1  UNL1       -0.0124
     21 C          61.8282   81.4318   14.0449 C.1     1  UNL1       -0.0558
     22 C          65.9135   93.0006   15.3665 C.3     1  UNL1        0.1718
     23 C          67.3202   93.4107   15.6874 C.1     1  UNL1       -0.0556
     24 C          68.7269   93.8207   16.0082 C.1     1  UNL1       -0.0124
     25 C          66.3689   92.6931   11.8381 C.3     1  UNL1        0.1075
     26 N          65.5243   92.0022   10.8088 N.am    1  UNL1       -0.2695
     27 C          64.0782   91.7212   11.0911 C.2     1  UNL1        0.4020
     28 O          63.4766   92.1312   12.4027 O.2     1  UNL1       -0.2264
     29 H          65.9191   91.7331    9.9480 H       1  UNL1        0.1528
     30 O          63.2335   91.0303   10.0619 O.3     1  UNL1       -0.4291
     31 C          61.8810   90.4999   10.4349 C.3     1  UNL1        0.2447
     32 C          61.3405   89.2780    9.7532 C.ar    1  UNL1        0.0714
     33 C          60.1397   89.2275    8.8556 C.ar    1  UNL1        0.1053
     34 N          59.9629   87.8103    8.3970 N.ar    1  UNL1       -0.2350
     35 C          61.0544   86.9848    9.0112 C.ar    1  UNL1        0.1343
     36 S          61.9058   87.8919    9.8494 S.2     1  UNL1       -0.0652
     37 C          66.3801   94.1910   11.9164 C.3     1  UNL1        0.0485
     38 C          66.3557   95.0081   10.6587 C.ar    1  UNL1       -0.0204
     39 C          65.2586   96.0059   10.4337 C.ar    1  UNL1       -0.0042
     40 C          65.2341   96.8229    9.1760 C.ar    1  UNL1       -0.0003
     41 C          66.3068   96.6421    8.1432 C.ar    1  UNL1       -0.0000
     42 C          67.4039   95.6443    8.3682 C.ar    1  UNL1       -0.0003
     43 C          67.4284   94.8273    9.6259 C.ar    1  UNL1       -0.0042
@<TRIPOS>BOND
     1    20    21    3
     2    21    19    1
     3    19    17    1
     4    17     8    1
     5     8     9   ar
     6     9    10   ar
     7    10    11   ar
     8    11    12   ar
     9    12    13   ar
    10    13     5    1
    11     5     6    2
    12     5     7   am
    13     7    22    1
    14    22    23    1
    15    23    24    3
    16     7     4    1
    17     4     1    1
    18     1     2    1
    19     1    25    1
    20    25    37    1
    21    37    38    1
    22    38    39   ar
    23    39    40   ar
    24    40    41   ar
    25    41    42   ar
    26    42    43   ar
    27    25    26    1
    28    26    27   am
    29    27    28    2
    30    27    30    1
    31    30    31    1
    32    31    32    1
    33    32    33   ar
    34    33    34   ar
    35    34    35   ar
    36    35    36   ar
    37    13    14   ar
    38    14    15   ar
    39    15    16   ar
    40    16     8   ar
    41    15    10   ar
    42    43    38   ar
    43    36    32   ar
    44    17    18    1
    45     2     3    1
    46    26    29    1
@<TRIPOS>MOLECULE
*****
 43 46 0 0 0
SMALL
GASTEIGER

@<TRIPOS>ATOM
      1 C          62.4166   85.5385   10.4047 C.3     1  UNL1        0.1485
      2 O          63.1338   85.5101    9.0875 O.3     1  UNL1       -0.3810
      3 H          62.7197   86.1430    8.4802 H       1  UNL1        0.2105
      4 C          61.2503   86.4605   10.6038 C.3     1  UNL1        0.1255
      5 C          60.8314   88.6416    9.2559 C.2     1  UNL1        0.2499
      6 O          60.2219   89.3449    8.0795 O.2     1  UNL1       -0.2699
      7 N          60.6408   87.1638    9.4274 N.am    1  UNL1       -0.2620
      8 C          65.1594   92.4218   12.0371 C.ar    1  UNL1        0.2898
      9 N          64.1981   91.8300   13.0248 N.ar    1  UNL1       -0.1948
     10 C          63.2319   90.9655   12.2704 C.ar    1  UNL1        0.1202
     11 C          62.0675   90.1334   12.7195 C.ar    1  UNL1        0.0225
     12 C          61.2674   89.3588   11.7147 C.ar    1  UNL1        0.0063
     13 C          61.6316   89.4163   10.2607 C.ar    1  UNL1        0.0567
     14 C          62.7960   90.2484    9.8116 C.ar    1  UNL1        0.0437
     15 C          63.5961   91.0230   10.8164 C.ar    1  UNL1        0.1662
     16 O          64.7874   91.9231   10.6723 O.2     1  UNL1       -0.4239
     17 N          66.2937   93.3495   12.3580 N.pl3   1  UNL1       -0.2770
     18 H          66.9156   93.6305   11.6484 H       1  UNL1        0.1520
     19 C          66.4804   93.8491   13.7599 C.3     1  UNL1        0.1694
     20 C          67.9271   92.1605   15.7738 C.1     1  UNL1       -0.0124
     21 C          67.2037   93.0048   14.7669 C.1     1  UNL1       -0.0558
     22 C          59.8406   86.3891    8.4226 C.3     1  UNL1        0.1718
     23 C          60.5391   85.5619    7.3844 C.1     1  UNL1       -0.0556
     24 C          61.2376   84.7348    6.3463 C.1     1  UNL1       -0.0124
     25 C          62.8658   84.6450   11.5226 C.3     1  UNL1        0.1075
     26 N          62.3240   84.8457   12.9070 N.am    1  UNL1       -0.2695
     27 C          63.2371   84.7402   14.0923 C.2     1  UNL1        0.4020
     28 O          64.6920   84.4341   13.8934 O.2     1  UNL1       -0.2264
     29 H          61.3691   85.0466   13.0375 H       1  UNL1        0.1528
     30 O          62.6953   84.9409   15.4766 O.3     1  UNL1       -0.4291
     31 C          63.4390   85.7999   16.4559 C.3     1  UNL1        0.2447
     32 C          63.5519   87.2774   16.2228 C.ar    1  UNL1        0.0714
     33 C          64.3067   87.9390   15.1081 C.ar    1  UNL1        0.1053
     34 N          64.1511   89.4232   15.2598 N.ar    1  UNL1       -0.2350
     35 C          63.3001   89.6789   16.4684 C.ar    1  UNL1        0.1343
     36 S          62.9298   88.3527   17.0635 S.2     1  UNL1       -0.0652
     37 C          63.8567   83.5509   11.2564 C.3     1  UNL1        0.0485
     38 C          63.4267   82.1157   11.3287 C.ar    1  UNL1       -0.0204
     39 C          63.0136   81.5218   12.6427 C.ar    1  UNL1       -0.0042
     40 C          62.5836   80.0866   12.7150 C.ar    1  UNL1       -0.0003
     41 C          62.5668   79.2452   11.4733 C.ar    1  UNL1       -0.0000
     42 C          62.9799   79.8390   10.1594 C.ar    1  UNL1       -0.0003
     43 C          63.4099   81.2743   10.0870 C.ar    1  UNL1       -0.0042
@<TRIPOS>BOND
     1    20    21    3
     2    21    19    1
     3    19    17    1
     4    17     8    1
     5     8     9   ar
     6     9    10   ar
     7    10    11   ar
     8    11    12   ar
     9    12    13   ar
    10    13     5    1
    11     5     6    2
    12     5     7   am
    13     7    22    1
    14    22    23    1
    15    23    24    3
    16     7     4    1
    17     4     1    1
    18     1     2    1
    19     1    25    1
    20    25    37    1
    21    37    38    1
    22    38    39   ar
    23    39    40   ar
    24    40    41   ar
    25    41    42   ar
    26    42    43   ar
    27    25    26    1
    28    26    27   am
    29    27    28    2
    30    27    30    1
    31    30    31    1
    32    31    32    1
    33    32    33   ar
    34    33    34   ar
    35    34    35   ar
    36    35    36   ar
    37    13    14   ar
    38    14    15   ar
    39    15    16   ar
    40    16     8   ar
    41    15    10   ar
    42    43    38   ar
    43    36    32   ar
    44    17    18    1
    45     2     3    1
    46    26    29    1
@<TRIPOS>MOLECULE
*****
 43 46 0 0 0
SMALL
GASTEIGER

@<TRIPOS>ATOM
      1 C          61.1757   89.9278   10.0381 C.3     1  UNL1        0.1485
      2 O          59.8294   90.4489   10.4451 O.3     1  UNL1       -0.3810
      3 H          59.1768   90.2264    9.7628 H       1  UNL1        0.2105
      4 C          61.3342   89.1917    8.7407 C.3     1  UNL1        0.1255
      5 C          60.0345   87.0250    8.1356 C.2     1  UNL1        0.2499
      6 O          58.8507   86.3537    7.5048 O.2     1  UNL1       -0.2699
      7 N          60.1505   88.5203    8.1099 N.am    1  UNL1       -0.2620
      8 C          63.6829   84.0278   12.4324 C.ar    1  UNL1        0.2898
      9 N          64.1593   83.8107   11.0267 N.ar    1  UNL1       -0.1948
     10 C          63.2378   84.5532   10.1050 C.ar    1  UNL1        0.1202
     11 C          63.2160   84.7011    8.6125 C.ar    1  UNL1        0.0225
     12 C          62.1482   85.5251    7.9561 C.ar    1  UNL1        0.0063
     13 C          61.1023   86.2011    8.7921 C.ar    1  UNL1        0.0567
     14 C          61.1241   86.0532   10.2846 C.ar    1  UNL1        0.0437
     15 C          62.1918   85.2292   10.9411 C.ar    1  UNL1        0.1662
     16 O          62.4669   84.9045   12.3794 O.2     1  UNL1       -0.4239
     17 N          64.3120   83.4666   13.6731 N.pl3   1  UNL1       -0.2770
     18 H          65.1956   83.7876   13.9654 H       1  UNL1        0.1520
     19 C          63.5948   82.4165   14.4685 C.3     1  UNL1        0.1694
     20 C          62.3344   80.0784   13.0740 C.1     1  UNL1       -0.0124
     21 C          62.9646   81.2474   13.7712 C.1     1  UNL1       -0.0558
     22 C          59.0827   89.3443    7.4534 C.3     1  UNL1        0.1718
     23 C          59.4002   90.1403    6.2223 C.1     1  UNL1       -0.0556
     24 C          59.7178   90.9363    4.9913 C.1     1  UNL1       -0.0124
     25 C          62.3637   90.1428   10.9284 C.3     1  UNL1        0.1075
     26 N          63.1204   88.9648   11.4667 N.am    1  UNL1       -0.2695
     27 C          63.1577   88.7089   12.9442 C.2     1  UNL1        0.4020
     28 O          62.4382   89.6309   13.8835 O.2     1  UNL1       -0.2264
     29 H          63.5927   88.3597   10.8503 H       1  UNL1        0.1528
     30 O          63.9145   87.5309   13.4825 O.3     1  UNL1       -0.4291
     31 C          64.4748   87.5714   14.8733 C.3     1  UNL1        0.2447
     32 C          63.6627   87.0563   16.0244 C.ar    1  UNL1        0.0714
     33 C          63.2706   85.6272   16.2572 C.ar    1  UNL1        0.1053
     34 N          62.4656   85.5674   17.5214 N.ar    1  UNL1       -0.2350
     35 C          62.3601   86.9595   18.0701 C.ar    1  UNL1        0.1343
     36 S          63.1000   87.8797   17.1448 S.2     1  UNL1       -0.0652
     37 C          62.7948   91.5357   11.2803 C.3     1  UNL1        0.0485
     38 C          64.2426   91.8295   11.5405 C.ar    1  UNL1       -0.0204
     39 C          65.1388   92.2425   10.4108 C.ar    1  UNL1       -0.0042
     40 C          66.5866   92.5363   10.6710 C.ar    1  UNL1       -0.0003
     41 C          67.1381   92.4171   12.0607 C.ar    1  UNL1       -0.0000
     42 C          66.2419   92.0041   13.1904 C.ar    1  UNL1       -0.0003
     43 C          64.7941   91.7103   12.9302 C.ar    1  UNL1       -0.0042
@<TRIPOS>BOND
     1    20    21    3
     2    21    19    1
     3    19    17    1
     4    17     8    1
     5     8     9   ar
     6     9    10   ar
     7    10    11   ar
     8    11    12   ar
     9    12    13   ar
    10    13     5    1
    11     5     6    2
    12     5     7   am
    13     7    22    1
    14    22    23    1
    15    23    24    3
    16     7     4    1
    17     4     1    1
    18     1     2    1
    19     1    25    1
    20    25    37    1
    21    37    38    1
    22    38    39   ar
    23    39    40   ar
    24    40    41   ar
    25    41    42   ar
    26    42    43   ar
    27    25    26    1
    28    26    27   am
    29    27    28    2
    30    27    30    1
    31    30    31    1
    32    31    32    1
    33    32    33   ar
    34    33    34   ar
    35    34    35   ar
    36    35    36   ar
    37    13    14   ar
    38    14    15   ar
    39    15    16   ar
    40    16     8   ar
    41    15    10   ar
    42    43    38   ar
    43    36    32   ar
    44    17    18    1
    45     2     3    1
    46    26    29    1
@<TRIPOS>MOLECULE
*****
 43 46 0 0 0
SMALL
GASTEIGER

@<TRIPOS>ATOM
      1 C          63.4646   89.5896   13.7245 C.3     1  UNL1        0.1485
      2 O          62.1210   89.7148   14.3795 O.3     1  UNL1       -0.3810
      3 H          61.6160   88.8984   14.2401 H       1  UNL1        0.2105
      4 C          63.8305   88.3290   12.9985 C.3     1  UNL1        0.1255
      5 C          63.1065   85.8344   13.0529 C.2     1  UNL1        0.2499
      6 O          63.0448   84.5149   13.7635 O.2     1  UNL1       -0.2699
      7 N          63.7689   87.0094   13.7091 N.am    1  UNL1       -0.2620
      8 C          59.7111   87.8546    8.0382 C.ar    1  UNL1        0.2898
      9 N          60.5534   86.6567    7.7134 N.ar    1  UNL1       -0.1948
     10 C          61.3040   86.2680    8.9526 C.ar    1  UNL1        0.1202
     11 C          62.2831   85.1657    9.2287 C.ar    1  UNL1        0.0225
     12 C          62.8839   85.0212   10.5954 C.ar    1  UNL1        0.0063
     13 C          62.5056   85.9790   11.6861 C.ar    1  UNL1        0.0567
     14 C          61.5265   87.0813   11.4100 C.ar    1  UNL1        0.0437
     15 C          60.9257   87.2258   10.0432 C.ar    1  UNL1        0.1662
     16 O          59.9413   88.2064    9.4781 O.2     1  UNL1       -0.4239
     17 N          58.7990   88.5745    7.0896 N.pl3   1  UNL1       -0.2770
     18 H          57.8517   88.3141    7.0245 H       1  UNL1        0.1520
     19 C          59.3300   89.6910    6.2403 C.3     1  UNL1        0.1694
     20 C          57.4322   91.5852    4.8947 C.1     1  UNL1       -0.0124
     21 C          58.3811   90.6381    5.5675 C.1     1  UNL1       -0.0558
     22 C          64.3697   86.8649   15.0759 C.3     1  UNL1        0.1718
     23 C          63.4799   86.7419   16.2772 C.1     1  UNL1       -0.0556
     24 C          62.5901   86.6189   17.4784 C.1     1  UNL1       -0.0124
     25 C          64.4423   90.7249   13.7955 C.3     1  UNL1        0.1075
     26 N          64.8224   91.4665   12.5482 N.am    1  UNL1       -0.2695
     27 C          63.8307   91.6160   11.4329 C.2     1  UNL1        0.4020
     28 O          62.4588   91.0239   11.5647 O.2     1  UNL1       -0.2264
     29 H          65.7229   91.8551   12.4616 H       1  UNL1        0.1528
     30 O          64.2108   92.3575   10.1855 O.3     1  UNL1       -0.4291
     31 C          65.0773   93.5787   10.2737 C.3     1  UNL1        0.2447
     32 C          66.5450   93.4795    9.9805 C.ar    1  UNL1        0.0714
     33 C          67.4265   94.5960    9.5045 C.ar    1  UNL1        0.1053
     34 N          68.8153   94.0531    9.3418 N.ar    1  UNL1       -0.2350
     35 C          68.7922   92.6009    9.7171 C.ar    1  UNL1        0.1343
     36 S          67.3891   92.2465   10.1119 S.2     1  UNL1       -0.0652
     37 C          65.0399   91.1187   15.1137 C.3     1  UNL1        0.0485
     38 C          66.3896   91.7717   15.1602 C.ar    1  UNL1       -0.0204
     39 C          67.4134   91.4530   14.1114 C.ar    1  UNL1       -0.0042
     40 C          68.7631   92.1060   14.1579 C.ar    1  UNL1       -0.0003
     41 C          69.0888   93.0776   15.2533 C.ar    1  UNL1       -0.0000
     42 C          68.0649   93.3962   16.3021 C.ar    1  UNL1       -0.0003
     43 C          66.7153   92.7433   16.2556 C.ar    1  UNL1       -0.0042
@<TRIPOS>BOND
     1    20    21    3
     2    21    19    1
     3    19    17    1
     4    17     8    1
     5     8     9   ar
     6     9    10   ar
     7    10    11   ar
     8    11    12   ar
     9    12    13   ar
    10    13     5    1
    11     5     6    2
    12     5     7   am
    13     7    22    1
    14    22    23    1
    15    23    24    3
    16     7     4    1
    17     4     1    1
    18     1     2    1
    19     1    25    1
    20    25    37    1
    21    37    38    1
    22    38    39   ar
    23    39    40   ar
    24    40    41   ar
    25    41    42   ar
    26    42    43   ar
    27    25    26    1
    28    26    27   am
    29    27    28    2
    30    27    30    1
    31    30    31    1
    32    31    32    1
    33    32    33   ar
    34    33    34   ar
    35    34    35   ar
    36    35    36   ar
    37    13    14   ar
    38    14    15   ar
    39    15    16   ar
    40    16     8   ar
    41    15    10   ar
    42    43    38   ar
    43    36    32   ar
    44    17    18    1
    45     2     3    1
    46    26    29    1
@<TRIPOS>MOLECULE
*****
 43 46 0 0 0
SMALL
GASTEIGER

@<TRIPOS>ATOM
      1 C          63.5241   88.3619   13.1097 C.3     1  UNL1        0.1485
      2 O          63.2084   89.5539   12.2556 O.3     1  UNL1       -0.3810
      3 H          63.5313   90.3582   12.6910 H       1  UNL1        0.2105
      4 C          64.2374   88.5435   14.4167 C.3     1  UNL1        0.1255
      5 C          64.2091   90.9435   15.4113 C.2     1  UNL1        0.2499
      6 O          63.6900   91.9261   16.4187 O.2     1  UNL1       -0.2699
      7 N          63.7183   89.5261   15.4242 N.am    1  UNL1       -0.2620
      8 C          66.9984   93.2237   10.1408 C.ar    1  UNL1        0.2898
      9 N          67.9957   92.7604   11.1610 N.ar    1  UNL1       -0.1948
     10 C          67.2385   92.2478   12.3501 C.ar    1  UNL1        0.1202
     11 C          67.6941   91.6666   13.6557 C.ar    1  UNL1        0.0225
     12 C          66.6842   91.2318   14.6760 C.ar    1  UNL1        0.0063
     13 C          65.2189   91.3783   14.3908 C.ar    1  UNL1        0.0567
     14 C          64.7634   91.9595   13.0852 C.ar    1  UNL1        0.0437
     15 C          65.7732   92.3943   12.0648 C.ar    1  UNL1        0.1662
     16 O          65.6248   92.9974   10.6995 O.2     1  UNL1       -0.4239
     17 N          67.3184   93.8103    8.7979 N.pl3   1  UNL1       -0.2770
     18 H          67.4245   93.2214    8.0161 H       1  UNL1        0.1520
     19 C          67.4769   95.2941    8.6461 C.3     1  UNL1        0.1694
     20 C          65.5139   96.8513    6.9963 C.1     1  UNL1       -0.0124
     21 C          66.4954   96.0727    7.8212 C.1     1  UNL1       -0.0558
     22 C          62.7085   89.0913   16.4446 C.3     1  UNL1        0.1718
     23 C          62.8248   87.7407   17.0867 C.1     1  UNL1       -0.0556
     24 C          62.9410   86.3901   17.7288 C.1     1  UNL1       -0.0124
     25 C          63.1266   86.9883   12.6568 C.3     1  UNL1        0.1075
     26 N          62.6866   85.9652   13.6617 N.am    1  UNL1       -0.2695
     27 C          63.6785   84.9899   14.2226 C.2     1  UNL1        0.4020
     28 O          65.1105   85.0374   13.7786 O.2     1  UNL1       -0.2264
     29 H          61.7467   85.9340   13.9532 H       1  UNL1        0.1528
     30 O          63.2385   83.9668   15.2276 O.3     1  UNL1       -0.4291
     31 C          63.6671   82.5371   15.0792 C.3     1  UNL1        0.2447
     32 C          63.3547   81.7875   13.8181 C.ar    1  UNL1        0.0714
     33 C          63.7533   82.1925   12.4299 C.ar    1  UNL1        0.1053
     34 N          63.2338   81.1566   11.4775 N.ar    1  UNL1       -0.2350
     35 C          62.5140   80.1113   12.2771 C.ar    1  UNL1        0.1343
     36 S          62.5887   80.5012   13.7237 S.2     1  UNL1       -0.0652
     37 C          63.1690   86.6376   11.1990 C.3     1  UNL1        0.0485
     38 C          61.9446   86.8110   10.3499 C.ar    1  UNL1       -0.0204
     39 C          60.9212   87.8461   10.7120 C.ar    1  UNL1       -0.0042
     40 C          59.6968   88.0194    9.8630 C.ar    1  UNL1       -0.0003
     41 C          59.4959   87.1576    8.6518 C.ar    1  UNL1       -0.0000
     42 C          60.5193   86.1225    8.2897 C.ar    1  UNL1       -0.0003
     43 C          61.7436   85.9492    9.1388 C.ar    1  UNL1       -0.0042
@<TRIPOS>BOND
     1    20    21    3
     2    21    19    1
     3    19    17    1
     4    17     8    1
     5     8     9   ar
     6     9    10   ar
     7    10    11   ar
     8    11    12   ar
     9    12    13   ar
    10    13     5    1
    11     5     6    2
    12     5     7   am
    13     7    22    1
    14    22    23    1
    15    23    24    3
    16     7     4    1
    17     4     1    1
    18     1     2    1
    19     1    25    1
    20    25    37    1
    21    37    38    1
    22    38    39   ar
    23    39    40   ar
    24    40    41   ar
    25    41    42   ar
    26    42    43   ar
    27    25    26    1
    28    26    27   am
    29    27    28    2
    30    27    30    1
    31    30    31    1
    32    31    32    1
    33    32    33   ar
    34    33    34   ar
    35    34    35   ar
    36    35    36   ar
    37    13    14   ar
    38    14    15   ar
    39    15    16   ar
    40    16     8   ar
    41    15    10   ar
    42    43    38   ar
    43    36    32   ar
    44    17    18    1
    45     2     3    1
    46    26    29    1
@<TRIPOS>MOLECULE
*****
 43 46 0 0 0
SMALL
GASTEIGER

@<TRIPOS>ATOM
      1 C          63.0636   89.9470   13.3329 C.3     1  UNL1        0.1485
      2 O          61.5656   89.9852   13.3987 O.3     1  UNL1       -0.3810
      3 H          61.2585   89.4063   14.1139 H       1  UNL1        0.2105
      4 C          63.8352   89.0939   14.2958 C.3     1  UNL1        0.1255
      5 C          63.4249   87.8131   16.5187 C.2     1  UNL1        0.2499
      6 O          63.0726   87.8213   17.9767 O.2     1  UNL1       -0.2699
      7 N          63.4828   89.1021   15.7538 N.am    1  UNL1       -0.2620
      8 C          63.1041   81.8158   14.3538 C.ar    1  UNL1        0.2898
      9 N          64.3330   82.5313   13.8763 N.ar    1  UNL1       -0.1948
     10 C          64.3083   83.9214   14.4393 C.ar    1  UNL1        0.1202
     11 C          65.2580   85.0749   14.3069 C.ar    1  UNL1        0.0225
     12 C          64.9635   86.3721   15.0000 C.ar    1  UNL1        0.0063
     13 C          63.7194   86.5158   15.8255 C.ar    1  UNL1        0.0567
     14 C          62.7697   85.3623   15.9579 C.ar    1  UNL1        0.0437
     15 C          63.0642   84.0651   15.2648 C.ar    1  UNL1        0.1662
     16 O          62.3200   82.7638   15.2119 O.2     1  UNL1       -0.4239
     17 N          62.7258   80.4009   14.0301 N.pl3   1  UNL1       -0.2770
     18 H          62.6163   79.7427   14.7540 H       1  UNL1        0.1520
     19 C          62.5145   79.9887   12.6034 C.3     1  UNL1        0.1694
     20 C          63.5142   81.7307   10.3749 C.1     1  UNL1       -0.0124
     21 C          63.0144   80.8597   11.4892 C.1     1  UNL1       -0.0558
     22 C          63.1884   90.3994   16.4469 C.3     1  UNL1        0.1718
     23 C          64.2162   91.4918   16.4622 C.1     1  UNL1       -0.0556
     24 C          65.2441   92.5841   16.4775 C.1     1  UNL1       -0.0124
     25 C          63.7902   90.7619   12.3043 C.3     1  UNL1        0.1075
     26 N          64.9053   91.6745   12.7213 N.am    1  UNL1       -0.2695
     27 C          65.3753   92.7564   11.7947 C.2     1  UNL1        0.4020
     28 O          64.7303   92.9257   10.4511 O.2     1  UNL1       -0.2264
     29 H          65.3287   91.5634   13.6031 H       1  UNL1        0.1528
     30 O          66.4905   93.6690   12.2117 O.3     1  UNL1       -0.4291
     31 C          66.4508   95.1211   11.8378 C.3     1  UNL1        0.2447
     32 C          66.7713   95.5432   10.4346 C.ar    1  UNL1        0.0714
     33 C          67.5255   94.7344    9.4210 C.ar    1  UNL1        0.1053
     34 N          67.6142   95.5396    8.1585 N.ar    1  UNL1       -0.2350
     35 C          66.9150   96.8460    8.3918 C.ar    1  UNL1        0.1343
     36 S          66.3940   96.8482    9.7985 S.2     1  UNL1       -0.0652
     37 C          63.4017   90.6643   10.8588 C.3     1  UNL1        0.0485
     38 C          62.3647   89.6706   10.4264 C.ar    1  UNL1       -0.0204
     39 C          62.6465   88.2007   10.5266 C.ar    1  UNL1       -0.0042
     40 C          61.6094   87.2070   10.0942 C.ar    1  UNL1       -0.0003
     41 C          60.2906   87.6831    9.5615 C.ar    1  UNL1       -0.0000
     42 C          60.0087   89.1530    9.4613 C.ar    1  UNL1       -0.0003
     43 C          61.0458   90.1467    9.8937 C.ar    1  UNL1       -0.0042
@<TRIPOS>BOND
     1    20    21    3
     2    21    19    1
     3    19    17    1
     4    17     8    1
     5     8     9   ar
     6     9    10   ar
     7    10    11   ar
     8    11    12   ar
     9    12    13   ar
    10    13     5    1
    11     5     6    2
    12     5     7   am
    13     7    22    1
    14    22    23    1
    15    23    24    3
    16     7     4    1
    17     4     1    1
    18     1     2    1
    19     1    25    1
    20    25    37    1
    21    37    38    1
    22    38    39   ar
    23    39    40   ar
    24    40    41   ar
    25    41    42   ar
    26    42    43   ar
    27    25    26    1
    28    26    27   am
    29    27    28    2
    30    27    30    1
    31    30    31    1
    32    31    32    1
    33    32    33   ar
    34    33    34   ar
    35    34    35   ar
    36    35    36   ar
    37    13    14   ar
    38    14    15   ar
    39    15    16   ar
    40    16     8   ar
    41    15    10   ar
    42    43    38   ar
    43    36    32   ar
    44    17    18    1
    45     2     3    1
    46    26    29    1
