@<TRIPOS>MOLECULE
*****
 30 31 0 0 0
SMALL
GASTEIGER

@<TRIPOS>ATOM
      1 C          61.1063   88.7482   10.1297 C.3     1  UNL1        0.0364
      2 C          60.0080   89.1773   11.0570 C.3     1  UNL1        0.1375
      3 O          59.4788   88.2221   12.0854 O.3     1  UNL1       -0.3820
      4 H          59.0365   87.4816   11.6416 H       1  UNL1        0.2104
      5 C          62.3676   89.5547   10.0371 C.3     1  UNL1        0.0290
      6 C          64.5466   91.6141   12.6373 C.ar    1  UNL1        0.1718
      7 C          63.7949   91.2519   11.3909 C.ar    1  UNL1        0.0358
      8 C          63.1194   89.9169   11.2837 C.ar    1  UNL1       -0.0189
      9 C          63.1956   88.9441   12.4229 C.ar    1  UNL1       -0.0010
     10 C          63.9474   89.3064   13.6693 C.ar    1  UNL1        0.0395
     11 C          64.6229   90.6414   13.7765 C.ar    1  UNL1        0.1677
     12 O          65.3746   91.0036   15.0230 O.3     1  UNL1       -0.5029
     13 H          65.4222   90.3959   15.7347 H       1  UNL1        0.2923
     14 C          65.9158   93.5366   11.5514 C.3     1  UNL1        0.2526
     15 O          65.2221   92.9491   12.7445 O.3     1  UNL1       -0.4684
     16 C          60.9431   87.5126    9.2950 C.3     1  UNL1        0.0364
     17 C          59.5813   87.1066    8.8144 C.3     1  UNL1        0.1375
     18 O          59.4414   86.0288    7.7806 O.3     1  UNL1       -0.3820
     19 H          59.8253   86.3323    6.9431 H       1  UNL1        0.2104
     20 C          62.1416   86.6831    8.9408 C.3     1  UNL1        0.0290
     21 C          62.6015   85.5961    9.8666 C.ar    1  UNL1       -0.0189
     22 C          63.3736   84.4286    9.3274 C.ar    1  UNL1       -0.0010
     23 C          63.8335   83.3417   10.2532 C.ar    1  UNL1        0.0395
     24 C          63.5214   83.4223   11.7181 C.ar    1  UNL1        0.1677
     25 O          63.9814   82.3354   12.6439 O.3     1  UNL1       -0.5029
     26 C          62.7493   84.5899   12.2573 C.ar    1  UNL1        0.1718
     27 C          62.2894   85.6768   11.3315 C.ar    1  UNL1        0.0358
     28 H          64.4636   81.6060   12.3071 H       1  UNL1        0.2923
     29 O          62.4372   84.6705   13.7223 O.3     1  UNL1       -0.4684
     30 C          63.5207   85.0101   14.7024 C.3     1  UNL1        0.2526
@<TRIPOS>BOND
     1    14    15    1
     2    15     6    1
     3     6     7   ar
     4     7     8   ar
     5     8     5    1
     6     1     5    1
     7     1     2    1
     8     2     3    1
     9     1    16    1
    10    16    17    1
    11    17    18    1
    12    16    20    1
    13    20    21    1
    14    21    22   ar
    15    22    23   ar
    16    23    24   ar
    17    24    25    1
    18    24    26   ar
    19    26    29    1
    20    29    30    1
    21    26    27   ar
    22     8     9   ar
    23     9    10   ar
    24    10    11   ar
    25    11    12    1
    26    11     6   ar
    27    27    21   ar
    28     3     4    1
    29    18    19    1
    30    25    28    1
    31    12    13    1
@<TRIPOS>MOLECULE
*****
 30 31 0 0 0
SMALL
GASTEIGER

@<TRIPOS>ATOM
      1 C          60.9812   87.5326    9.3206 C.3     1  UNL1        0.0364
      2 C          59.6360   87.0964    8.8203 C.3     1  UNL1        0.1375
      3 O          59.5328   85.9858    7.8174 O.3     1  UNL1       -0.3820
      4 H          59.9338   86.2677    6.9804 H       1  UNL1        0.2104
      5 C          62.1995   86.7164    9.0051 C.3     1  UNL1        0.0290
      6 C          62.7277   84.5801   12.3077 C.ar    1  UNL1        0.1718
      7 C          62.3103   85.6902   11.3894 C.ar    1  UNL1        0.0358
      8 C          62.6170   85.6063    9.9235 C.ar    1  UNL1       -0.0189
      9 C          63.3412   84.4123    9.3759 C.ar    1  UNL1       -0.0010
     10 C          63.7586   83.3022   10.2942 C.ar    1  UNL1        0.0395
     11 C          63.4519   83.3861   11.7601 C.ar    1  UNL1        0.1677
     12 O          63.8694   82.2759   12.6785 O.3     1  UNL1       -0.5029
     13 H          64.3217   81.5300   12.3364 H       1  UNL1        0.2923
     14 C          63.5153   84.9709   14.7525 C.3     1  UNL1        0.2526
     15 O          62.4210   84.6640   13.7736 O.3     1  UNL1       -0.4684
     16 C          61.1080   88.7849   10.1364 C.3     1  UNL1        0.0364
     17 C          59.9939   89.2003   11.0510 C.3     1  UNL1        0.1375
     18 O          59.4533   88.2330   12.0619 O.3     1  UNL1       -0.3820
     19 H          59.0209   87.4951   11.6042 H       1  UNL1        0.2104
     20 C          62.3489   89.6219   10.0377 C.3     1  UNL1        0.0290
     21 C          63.1134   89.9789   11.2780 C.ar    1  UNL1       -0.0189
     22 C          63.1706   89.0162   12.4269 C.ar    1  UNL1       -0.0010
     23 C          63.9350   89.3732   13.6671 C.ar    1  UNL1        0.0395
     24 C          64.6422   90.6928   13.7584 C.ar    1  UNL1        0.1677
     25 O          65.4067   91.0498   14.9986 O.3     1  UNL1       -0.5029
     26 C          64.5850   91.6555   12.6095 C.ar    1  UNL1        0.1718
     27 C          63.8206   91.2986   11.3693 C.ar    1  UNL1        0.0358
     28 H          65.4425   90.4485   15.7163 H       1  UNL1        0.2923
     29 O          65.2923   92.9752   12.7008 O.3     1  UNL1       -0.4684
     30 C          65.7785   93.6534   11.4544 C.3     1  UNL1        0.2526
@<TRIPOS>BOND
     1    14    15    1
     2    15     6    1
     3     6     7   ar
     4     7     8   ar
     5     8     5    1
     6     1     5    1
     7     1     2    1
     8     2     3    1
     9     1    16    1
    10    16    17    1
    11    17    18    1
    12    16    20    1
    13    20    21    1
    14    21    22   ar
    15    22    23   ar
    16    23    24   ar
    17    24    25    1
    18    24    26   ar
    19    26    29    1
    20    29    30    1
    21    26    27   ar
    22     8     9   ar
    23     9    10   ar
    24    10    11   ar
    25    11    12    1
    26    11     6   ar
    27    27    21   ar
    28     3     4    1
    29    18    19    1
    30    25    28    1
    31    12    13    1
@<TRIPOS>MOLECULE
*****
 30 31 0 0 0
SMALL
GASTEIGER

@<TRIPOS>ATOM
      1 C          61.1377   88.4533    9.9783 C.3     1  UNL1        0.0364
      2 C          60.0276   88.9602   10.8505 C.3     1  UNL1        0.1375
      3 O          59.5878   88.1640   12.0433 O.3     1  UNL1       -0.3820
      4 H          59.1930   87.3290   11.7470 H       1  UNL1        0.2104
      5 C          62.4114   89.2357    9.8549 C.3     1  UNL1        0.0290
      6 C          63.7603   89.6263   13.5668 C.ar    1  UNL1        0.1718
      7 C          63.1234   89.0328   12.3453 C.ar    1  UNL1        0.0358
      8 C          63.0483   89.8293   11.0764 C.ar    1  UNL1       -0.0189
      9 C          63.6101   91.2193   11.0291 C.ar    1  UNL1       -0.0010
     10 C          64.2470   91.8128   12.2506 C.ar    1  UNL1        0.0395
     11 C          64.3221   91.0163   13.5194 C.ar    1  UNL1        0.1677
     12 O          64.9590   91.6099   14.7410 O.3     1  UNL1       -0.5029
     13 H          65.3099   92.4782   14.7114 H       1  UNL1        0.2923
     14 C          63.1585   89.3308   16.0768 C.3     1  UNL1        0.2526
     15 O          63.8354   88.8298   14.8356 O.3     1  UNL1       -0.4684
     16 C          60.9739   87.1640    9.2294 C.3     1  UNL1        0.0364
     17 C          59.6103   86.7203    8.7890 C.3     1  UNL1        0.1375
     18 O          59.4473   85.9571    7.5081 O.3     1  UNL1       -0.3820
     19 H          59.6820   86.5277    6.7596 H       1  UNL1        0.2104
     20 C          62.1738   86.3182    8.9210 C.3     1  UNL1        0.0290
     21 C          62.6738   85.3289    9.9316 C.ar    1  UNL1       -0.0189
     22 C          63.4552   84.1293    9.4838 C.ar    1  UNL1       -0.0010
     23 C          63.9552   83.1400   10.4943 C.ar    1  UNL1        0.0395
     24 C          63.6740   83.3503   11.9526 C.ar    1  UNL1        0.1677
     25 O          64.1740   82.3609   12.9632 O.3     1  UNL1       -0.5029
     26 C          62.8926   84.5499   12.4004 C.ar    1  UNL1        0.1718
     27 C          62.3926   85.5392   11.3899 C.ar    1  UNL1        0.0358
     28 H          64.6621   81.6116   12.6835 H       1  UNL1        0.2923
     29 O          62.6114   84.7601   13.8587 O.3     1  UNL1       -0.4684
     30 C          63.6997   85.2444   14.7702 C.3     1  UNL1        0.2526
@<TRIPOS>BOND
     1    14    15    1
     2    15     6    1
     3     6     7   ar
     4     7     8   ar
     5     8     5    1
     6     1     5    1
     7     1     2    1
     8     2     3    1
     9     1    16    1
    10    16    17    1
    11    17    18    1
    12    16    20    1
    13    20    21    1
    14    21    22   ar
    15    22    23   ar
    16    23    24   ar
    17    24    25    1
    18    24    26   ar
    19    26    29    1
    20    29    30    1
    21    26    27   ar
    22     8     9   ar
    23     9    10   ar
    24    10    11   ar
    25    11    12    1
    26    11     6   ar
    27    27    21   ar
    28     3     4    1
    29    18    19    1
    30    25    28    1
    31    12    13    1
@<TRIPOS>MOLECULE
*****
 30 31 0 0 0
SMALL
GASTEIGER

@<TRIPOS>ATOM
      1 C          60.3558   88.7096    9.5067 C.3     1  UNL1        0.0364
      2 C          59.8525   89.0188    8.1278 C.3     1  UNL1        0.1375
      3 O          58.7818   88.1678    7.5119 O.3     1  UNL1       -0.3820
      4 H          59.1258   87.2733    7.3624 H       1  UNL1        0.2104
      5 C          60.1273   87.3517   10.1015 C.3     1  UNL1        0.0290
      6 C          62.7105   84.6217   11.3760 C.ar    1  UNL1        0.1718
      7 C          61.6051   85.6356   11.3748 C.ar    1  UNL1        0.0358
      8 C          61.2328   86.3378   10.1026 C.ar    1  UNL1       -0.0189
      9 C          61.9659   86.0261    8.8317 C.ar    1  UNL1       -0.0010
     10 C          63.0713   85.0122    8.8329 C.ar    1  UNL1        0.0395
     11 C          63.4436   84.3100   10.1050 C.ar    1  UNL1        0.1677
     12 O          64.5491   83.2960   10.1062 O.3     1  UNL1       -0.5029
     13 H          65.0070   83.1013    9.3122 H       1  UNL1        0.2923
     14 C          64.1736   84.4709   13.5176 C.3     1  UNL1        0.2526
     15 O          63.0828   83.9195   12.6481 O.3     1  UNL1       -0.4684
     16 C          61.0874   89.7584   10.2907 C.3     1  UNL1        0.0364
     17 C          60.3218   90.7373   11.1308 C.3     1  UNL1        0.1375
     18 O          58.9589   90.3793   11.6450 O.3     1  UNL1       -0.3820
     19 H          58.3450   90.2904   10.8992 H       1  UNL1        0.2104
     20 C          62.5847   89.8284   10.2347 C.3     1  UNL1        0.0290
     21 C          63.3613   90.2569   11.4445 C.ar    1  UNL1       -0.0189
     22 C          64.1606   91.5258   11.4118 C.ar    1  UNL1       -0.0010
     23 C          64.9372   91.9543   12.6214 C.ar    1  UNL1        0.0395
     24 C          64.9144   91.1140   13.8637 C.ar    1  UNL1        0.1677
     25 O          65.6909   91.5426   15.0735 O.3     1  UNL1       -0.5029
     26 C          64.1150   89.8452   13.8964 C.ar    1  UNL1        0.1718
     27 C          63.3385   89.4166   12.6867 C.ar    1  UNL1        0.0358
     28 H          66.1903   92.3352   15.0531 H       1  UNL1        0.2923
     29 O          64.0923   89.0049   15.1388 O.3     1  UNL1       -0.4684
     30 C          63.2086   89.3894   16.2882 C.3     1  UNL1        0.2526
@<TRIPOS>BOND
     1    14    15    1
     2    15     6    1
     3     6     7   ar
     4     7     8   ar
     5     8     5    1
     6     1     5    1
     7     1     2    1
     8     2     3    1
     9     1    16    1
    10    16    17    1
    11    17    18    1
    12    16    20    1
    13    20    21    1
    14    21    22   ar
    15    22    23   ar
    16    23    24   ar
    17    24    25    1
    18    24    26   ar
    19    26    29    1
    20    29    30    1
    21    26    27   ar
    22     8     9   ar
    23     9    10   ar
    24    10    11   ar
    25    11    12    1
    26    11     6   ar
    27    27    21   ar
    28     3     4    1
    29    18    19    1
    30    25    28    1
    31    12    13    1
@<TRIPOS>MOLECULE
*****
 30 31 0 0 0
SMALL
GASTEIGER

@<TRIPOS>ATOM
      1 C          60.8542   88.7085    9.8325 C.3     1  UNL1        0.0364
      2 C          59.7724   89.0972   10.7962 C.3     1  UNL1        0.1375
      3 O          59.4362   88.1981   11.9489 O.3     1  UNL1       -0.3820
      4 H          59.0639   87.3677   11.6133 H       1  UNL1        0.2104
      5 C          62.0078   89.6351    9.5863 C.3     1  UNL1        0.0290
      6 C          63.5837   89.9790   13.2123 C.ar    1  UNL1        0.1718
      7 C          62.7904   89.4457   12.0565 C.ar    1  UNL1        0.0358
      8 C          62.8011   90.1686   10.7422 C.ar    1  UNL1       -0.0189
      9 C          63.6052   91.4249   10.5839 C.ar    1  UNL1       -0.0010
     10 C          64.3985   91.9583   11.7397 C.ar    1  UNL1        0.0395
     11 C          64.3878   91.2354   13.0540 C.ar    1  UNL1        0.1677
     12 O          65.1812   91.7688   14.2099 O.3     1  UNL1       -0.5029
     13 H          65.6834   92.5536   14.1109 H       1  UNL1        0.2923
     14 C          64.3523   87.9849   14.6897 C.3     1  UNL1        0.2526
     15 O          63.5730   89.2561   14.5266 O.3     1  UNL1       -0.4684
     16 C          60.7823   87.3932    9.1150 C.3     1  UNL1        0.0364
     17 C          59.4678   86.8955    8.5911 C.3     1  UNL1        0.1375
     18 O          58.7182   87.6936    7.5659 O.3     1  UNL1       -0.3820
     19 H          58.4297   88.5329    7.9573 H       1  UNL1        0.2104
     20 C          62.0249   86.5757    8.9213 C.3     1  UNL1        0.0290
     21 C          62.4933   85.6540   10.0082 C.ar    1  UNL1       -0.0189
     22 C          62.3118   86.0377   11.4469 C.ar    1  UNL1       -0.0010
     23 C          62.7801   85.1161   12.5337 C.ar    1  UNL1        0.0395
     24 C          63.4299   83.8108   12.1818 C.ar    1  UNL1        0.1677
     25 O          63.8983   82.8891   13.2687 O.3     1  UNL1       -0.5029
     26 C          63.6114   83.4271   10.7432 C.ar    1  UNL1        0.1718
     27 C          63.1431   84.3487    9.6563 C.ar    1  UNL1        0.0358
     28 H          63.7849   83.1288   14.1674 H       1  UNL1        0.2923
     29 O          64.2612   82.1217   10.3913 O.3     1  UNL1       -0.4684
     30 C          63.4567   80.8557   10.4048 C.3     1  UNL1        0.2526
@<TRIPOS>BOND
     1    14    15    1
     2    15     6    1
     3     6     7   ar
     4     7     8   ar
     5     8     5    1
     6     1     5    1
     7     1     2    1
     8     2     3    1
     9     1    16    1
    10    16    17    1
    11    17    18    1
    12    16    20    1
    13    20    21    1
    14    21    22   ar
    15    22    23   ar
    16    23    24   ar
    17    24    25    1
    18    24    26   ar
    19    26    29    1
    20    29    30    1
    21    26    27   ar
    22     8     9   ar
    23     9    10   ar
    24    10    11   ar
    25    11    12    1
    26    11     6   ar
    27    27    21   ar
    28     3     4    1
    29    18    19    1
    30    25    28    1
    31    12    13    1
@<TRIPOS>MOLECULE
*****
 30 31 0 0 0
SMALL
GASTEIGER

@<TRIPOS>ATOM
      1 C          62.5241   89.1358   11.3733 C.3     1  UNL1        0.0364
      2 C          63.0532   90.0268   10.2887 C.3     1  UNL1        0.1375
      3 O          62.7049   91.4858   10.2802 O.3     1  UNL1       -0.3820
      4 H          61.7530   91.5901   10.1260 H       1  UNL1        0.2104
      5 C          63.4168   88.7208   12.5051 C.3     1  UNL1        0.0290
      6 C          64.9437   91.8536   14.4034 C.ar    1  UNL1        0.1718
      7 C          64.6167   90.8799   13.3103 C.ar    1  UNL1        0.0358
      8 C          63.7438   89.6945   13.5982 C.ar    1  UNL1       -0.0189
      9 C          63.1979   89.4828   14.9792 C.ar    1  UNL1       -0.0010
     10 C          63.5249   90.4566   16.0723 C.ar    1  UNL1        0.0395
     11 C          64.3978   91.6419   15.7844 C.ar    1  UNL1        0.1677
     12 O          64.7248   92.6157   16.8776 O.3     1  UNL1       -0.5029
     13 H          64.3838   92.4835   17.7402 H       1  UNL1        0.2923
     14 C          67.2748   92.9990   14.4646 C.3     1  UNL1        0.2526
     15 O          65.8166   93.0390   14.1155 O.3     1  UNL1       -0.4684
     16 C          61.1024   88.6598   11.3260 C.3     1  UNL1        0.0364
     17 C          60.0452   89.3758   12.1133 C.3     1  UNL1        0.1375
     18 O          58.8784   88.6140   12.6684 O.3     1  UNL1       -0.3820
     19 H          58.3363   88.2759   11.9385 H       1  UNL1        0.2104
     20 C          60.7379   87.4678   10.4916 C.3     1  UNL1        0.0290
     21 C          61.6892   86.3137   10.3765 C.ar    1  UNL1       -0.0189
     22 C          62.3148   85.9867    9.0530 C.ar    1  UNL1       -0.0010
     23 C          63.2661   84.8326    8.9378 C.ar    1  UNL1        0.0395
     24 C          63.5917   84.0057   10.1461 C.ar    1  UNL1        0.1677
     25 O          64.5429   82.8515   10.0309 O.3     1  UNL1       -0.5029
     26 C          62.9660   84.3327   11.4696 C.ar    1  UNL1        0.1718
     27 C          62.0148   85.4867   11.5848 C.ar    1  UNL1        0.0358
     28 H          64.9338   82.6472    9.2042 H       1  UNL1        0.2923
     29 O          63.2917   83.5057   12.6779 O.3     1  UNL1       -0.4684
     30 C          64.4409   83.8897   13.5621 C.3     1  UNL1        0.2526
@<TRIPOS>BOND
     1    14    15    1
     2    15     6    1
     3     6     7   ar
     4     7     8   ar
     5     8     5    1
     6     1     5    1
     7     1     2    1
     8     2     3    1
     9     1    16    1
    10    16    17    1
    11    17    18    1
    12    16    20    1
    13    20    21    1
    14    21    22   ar
    15    22    23   ar
    16    23    24   ar
    17    24    25    1
    18    24    26   ar
    19    26    29    1
    20    29    30    1
    21    26    27   ar
    22     8     9   ar
    23     9    10   ar
    24    10    11   ar
    25    11    12    1
    26    11     6   ar
    27    27    21   ar
    28     3     4    1
    29    18    19    1
    30    25    28    1
    31    12    13    1
@<TRIPOS>MOLECULE
*****
 30 31 0 0 0
SMALL
GASTEIGER

@<TRIPOS>ATOM
      1 C          61.2783   88.9488   11.5107 C.3     1  UNL1        0.0364
      2 C          60.2010   89.7153   12.2193 C.3     1  UNL1        0.1375
      3 O          59.5393   90.8789   11.5424 O.3     1  UNL1       -0.3820
      4 H          60.1869   91.5896   11.4145 H       1  UNL1        0.2104
      5 C          62.6801   88.9580   12.0443 C.3     1  UNL1        0.0290
      6 C          64.9823   91.9700   13.2181 C.ar    1  UNL1        0.1718
      7 C          64.1752   90.7062   13.2521 C.ar    1  UNL1        0.0358
      8 C          63.4873   90.2219   12.0102 C.ar    1  UNL1       -0.0189
      9 C          63.6066   91.0015   10.7343 C.ar    1  UNL1       -0.0010
     10 C          64.4137   92.2653   10.7003 C.ar    1  UNL1        0.0395
     11 C          65.1016   92.7495   11.9422 C.ar    1  UNL1        0.1677
     12 O          65.9088   94.0135   11.9081 O.3     1  UNL1       -0.5029
     13 H          65.9833   94.5004   11.1111 H       1  UNL1        0.2923
     14 C          66.9311   91.7893   14.9268 C.3     1  UNL1        0.2526
     15 O          65.6702   92.4542   14.4600 O.3     1  UNL1       -0.4684
     16 C          60.9537   88.1732   10.2686 C.3     1  UNL1        0.0364
     17 C          60.9397   88.8622    8.9362 C.3     1  UNL1        0.1375
     18 O          59.9903   89.9968    8.6886 O.3     1  UNL1       -0.3820
     19 H          59.0787   89.6661    8.7098 H       1  UNL1        0.2104
     20 C          60.6430   86.7084   10.3587 C.3     1  UNL1        0.0290
     21 C          61.7551   85.7143   10.5168 C.ar    1  UNL1       -0.0189
     22 C          62.4924   85.2153    9.3096 C.ar    1  UNL1       -0.0010
     23 C          63.6044   84.2212    9.4677 C.ar    1  UNL1        0.0395
     24 C          63.9792   83.7260   10.8331 C.ar    1  UNL1        0.1677
     25 O          65.0913   82.7318   10.9913 O.3     1  UNL1       -0.5029
     26 C          63.2419   84.2250   12.0404 C.ar    1  UNL1        0.1718
     27 C          62.1299   85.2191   11.8822 C.ar    1  UNL1        0.0358
     28 H          65.5518   82.4202   10.2372 H       1  UNL1        0.2923
     29 O          63.6167   83.7297   13.4058 O.3     1  UNL1       -0.4684
     30 C          62.9023   82.5515   13.9985 C.3     1  UNL1        0.2526
@<TRIPOS>BOND
     1    14    15    1
     2    15     6    1
     3     6     7   ar
     4     7     8   ar
     5     8     5    1
     6     1     5    1
     7     1     2    1
     8     2     3    1
     9     1    16    1
    10    16    17    1
    11    17    18    1
    12    16    20    1
    13    20    21    1
    14    21    22   ar
    15    22    23   ar
    16    23    24   ar
    17    24    25    1
    18    24    26   ar
    19    26    29    1
    20    29    30    1
    21    26    27   ar
    22     8     9   ar
    23     9    10   ar
    24    10    11   ar
    25    11    12    1
    26    11     6   ar
    27    27    21   ar
    28     3     4    1
    29    18    19    1
    30    25    28    1
    31    12    13    1
@<TRIPOS>MOLECULE
*****
 30 31 0 0 0
SMALL
GASTEIGER

@<TRIPOS>ATOM
      1 C          61.1831   88.5319   10.5468 C.3     1  UNL1        0.0364
      2 C          59.9554   88.7281   11.3862 C.3     1  UNL1        0.1375
      3 O          59.6998   90.0521   12.0431 O.3     1  UNL1       -0.3820
      4 H          60.3822   90.2182   12.7122 H       1  UNL1        0.2104
      5 C          61.9302   89.7217   10.0211 C.3     1  UNL1        0.0290
      6 C          64.7238   92.2756   11.2140 C.ar    1  UNL1        0.1718
      7 C          63.7188   91.5778   10.3463 C.ar    1  UNL1        0.0358
      8 C          62.9352   90.4196   10.8889 C.ar    1  UNL1       -0.0189
      9 C          63.1566   89.9592   12.2992 C.ar    1  UNL1       -0.0010
     10 C          64.1616   90.6570   13.1669 C.ar    1  UNL1        0.0395
     11 C          64.9452   91.8153   12.6243 C.ar    1  UNL1        0.1677
     12 O          65.9503   92.5131   13.4920 O.3     1  UNL1       -0.5029
     13 H          66.0885   92.2255   14.3730 H       1  UNL1        0.2923
     14 C          66.8858   93.2151   10.1216 C.3     1  UNL1        0.2526
     15 O          65.5074   93.4339   10.6714 O.3     1  UNL1       -0.4684
     16 C          61.6636   87.1461   10.2331 C.3     1  UNL1        0.0364
     17 C          62.4216   86.8840    8.9655 C.3     1  UNL1        0.1375
     18 O          62.5344   85.4857    8.4345 O.3     1  UNL1       -0.3820
     19 H          63.0562   84.9473    9.0499 H       1  UNL1        0.2104
     20 C          61.3861   86.0222   11.1870 C.3     1  UNL1        0.0290
     21 C          62.4785   85.5062   12.0762 C.ar    1  UNL1       -0.0189
     22 C          63.1591   86.4306   13.0417 C.ar    1  UNL1       -0.0010
     23 C          64.2515   85.9147   13.9308 C.ar    1  UNL1        0.0395
     24 C          64.6632   84.4744   13.8544 C.ar    1  UNL1        0.1677
     25 O          65.7556   83.9584   14.7435 O.3     1  UNL1       -0.5029
     26 C          63.9827   83.5500   12.8888 C.ar    1  UNL1        0.1718
     27 C          62.8903   84.0659   11.9997 C.ar    1  UNL1        0.0358
     28 H          66.1808   84.5358   15.3467 H       1  UNL1        0.2923
     29 O          64.3945   82.1096   12.8124 O.3     1  UNL1       -0.4684
     30 C          63.4035   81.0285   13.1273 C.3     1  UNL1        0.2526
@<TRIPOS>BOND
     1    14    15    1
     2    15     6    1
     3     6     7   ar
     4     7     8   ar
     5     8     5    1
     6     1     5    1
     7     1     2    1
     8     2     3    1
     9     1    16    1
    10    16    17    1
    11    17    18    1
    12    16    20    1
    13    20    21    1
    14    21    22   ar
    15    22    23   ar
    16    23    24   ar
    17    24    25    1
    18    24    26   ar
    19    26    29    1
    20    29    30    1
    21    26    27   ar
    22     8     9   ar
    23     9    10   ar
    24    10    11   ar
    25    11    12    1
    26    11     6   ar
    27    27    21   ar
    28     3     4    1
    29    18    19    1
    30    25    28    1
    31    12    13    1
@<TRIPOS>MOLECULE
*****
 30 31 0 0 0
SMALL
GASTEIGER

@<TRIPOS>ATOM
      1 C          62.8434   89.7296   11.8889 C.3     1  UNL1        0.0364
      2 C          62.5286   90.3068   10.5406 C.3     1  UNL1        0.1375
      3 O          61.1057   90.3865   10.0726 O.3     1  UNL1       -0.3820
      4 H          60.7545   89.4904    9.9516 H       1  UNL1        0.2104
      5 C          63.0925   90.6398   13.0548 C.3     1  UNL1        0.0290
      6 C          66.4572   92.6959   12.6053 C.ar    1  UNL1        0.1718
      7 C          65.0790   92.1603   12.3531 C.ar    1  UNL1        0.0358
      8 C          64.4708   91.1754   13.3071 C.ar    1  UNL1       -0.0189
      9 C          65.2409   90.7261   14.5133 C.ar    1  UNL1       -0.0010
     10 C          66.6191   91.2617   14.7656 C.ar    1  UNL1        0.0395
     11 C          67.2272   92.2466   13.8115 C.ar    1  UNL1        0.1677
     12 O          68.6055   92.7822   14.0638 O.3     1  UNL1       -0.5029
     13 H          69.0865   92.5015   14.8174 H       1  UNL1        0.2923
     14 C          66.2629   94.8538   11.1716 C.3     1  UNL1        0.2526
     15 O          67.0653   93.6808   11.6513 O.3     1  UNL1       -0.4684
     16 C          62.9091   88.2422   12.0712 C.3     1  UNL1        0.0364
     17 C          62.0439   87.3452   11.2363 C.3     1  UNL1        0.1375
     18 O          60.5520   87.3923   11.3843 O.3     1  UNL1       -0.3820
     19 H          60.3048   87.0793   12.2685 H       1  UNL1        0.2104
     20 C          63.8401   87.6516   13.0883 C.3     1  UNL1        0.0290
     21 C          63.6280   86.2481   13.5736 C.ar    1  UNL1       -0.0189
     22 C          63.9266   85.8947   15.0004 C.ar    1  UNL1       -0.0010
     23 C          63.7146   84.4914   15.4857 C.ar    1  UNL1        0.0395
     24 C          63.2041   83.4413   14.5440 C.ar    1  UNL1        0.1677
     25 O          62.9920   82.0378   15.0292 O.3     1  UNL1       -0.5029
     26 C          62.9055   83.7947   13.1171 C.ar    1  UNL1        0.1718
     27 C          63.1175   85.1981   12.6319 C.ar    1  UNL1        0.0358
     28 H          63.1785   81.8171   15.9205 H       1  UNL1        0.2923
     29 O          62.3950   82.7446   12.1754 O.3     1  UNL1       -0.4684
     30 C          63.3593   81.8422   11.4642 C.3     1  UNL1        0.2526
@<TRIPOS>BOND
     1    14    15    1
     2    15     6    1
     3     6     7   ar
     4     7     8   ar
     5     8     5    1
     6     1     5    1
     7     1     2    1
     8     2     3    1
     9     1    16    1
    10    16    17    1
    11    17    18    1
    12    16    20    1
    13    20    21    1
    14    21    22   ar
    15    22    23   ar
    16    23    24   ar
    17    24    25    1
    18    24    26   ar
    19    26    29    1
    20    29    30    1
    21    26    27   ar
    22     8     9   ar
    23     9    10   ar
    24    10    11   ar
    25    11    12    1
    26    11     6   ar
    27    27    21   ar
    28     3     4    1
    29    18    19    1
    30    25    28    1
    31    12    13    1
