@<TRIPOS>MOLECULE
*****
 24 27 0 0 0
SMALL
GASTEIGER

@<TRIPOS>ATOM
      1 C          66.2537   92.9494   12.2336 C.2     1  UNL1        0.1199
      2 C          66.8184   92.9342   13.6231 C.2     1  UNL1        0.0342
      3 C          66.2003   92.0610   14.6745 C.2     1  UNL1        0.0216
      4 C          65.0174   91.2029   14.3363 C.2     1  UNL1        0.0781
      5 N          64.2029   90.2476   15.1572 N.2     1  UNL1       -0.2439
      6 C          63.1349   89.6723   14.2750 C.2     1  UNL1        0.1050
      7 C          63.2892   90.2721   12.9089 C.2     1  UNL1        0.0926
      8 C          64.4526   91.2181   12.9467 C.2     1  UNL1        0.0100
      9 C          65.0708   92.0913   11.8954 C.3     1  UNL1        0.0808
     10 C          64.5061   92.1065   10.5058 C.3     1  UNL1        0.0127
     11 C          66.4384   95.2520   11.0446 C.3     1  UNL1        0.2520
     12 O          66.8719   93.8227   11.1822 O.2     1  UNL1       -0.4754
     13 C          62.4307   89.9776   11.7146 C.2     1  UNL1        0.3425
     14 O          61.2213   90.8195   11.4343 O.2     1  UNL1       -0.2448
     15 O          62.7817   88.8412   10.8005 O.3     1  UNL1       -0.4454
     16 C          62.0262   87.5484   10.8871 C.3     1  UNL1        0.2087
     17 C          61.5063   86.8984    9.6392 C.3     1  UNL1        0.0445
     18 C          62.3920   85.9848    8.8447 C.3     1  UNL1        0.0210
     19 C          61.8722   85.3347    7.5968 C.3     1  UNL1        0.0722
     20 N          60.4668   85.5983    7.1433 N.3     1  UNL1       -0.2727
     21 C          59.5813   86.5118    7.9378 C.3     1  UNL1        0.0722
     22 C          60.1010   87.1619    9.1857 C.3     1  UNL1        0.0210
     23 C          60.7071   85.9773    7.8337 C.3     1  UNL1        0.0722
     24 C          61.1772   86.5650    8.9621 C.3     1  UNL1        0.0210
@<TRIPOS>BOND
     1    11    12    1
     2    12     1    1
     3     1     2    2
     4     2     3    1
     5     3     4    2
     6     4     5    1
     7     5     6    2
     8     6     7    1
     9     7    13    1
    10    13    14    2
    11    13    15    1
    12    15    16    1
    13    16    17    1
    14    17    18    1
    15    18    19    1
    16    19    20    1
    17    20    21    1
    18    21    22    1
    19    20    23    1
    20    23    24    1
    21     7     8    2
    22     8     9    1
    23     9    10    1
    24     9     1    1
    25     8     4    1
    26    22    17    1
    27    24    17    1
@<TRIPOS>MOLECULE
*****
 24 27 0 0 0
SMALL
GASTEIGER

@<TRIPOS>ATOM
      1 C          65.9209   91.8314   14.0238 C.2     1  UNL1        0.1199
      2 C          66.3936   92.9418   13.1331 C.2     1  UNL1        0.0342
      3 C          65.7725   93.1352   11.7815 C.2     1  UNL1        0.0216
      4 C          64.6786   92.2182   11.3206 C.2     1  UNL1        0.0781
      5 N          63.8830   92.1640   10.0502 N.2     1  UNL1       -0.2439
      6 C          62.9185   91.0201   10.1557 C.2     1  UNL1        0.1050
      7 C          63.1180   90.3673   11.4914 C.2     1  UNL1        0.0926
      8 C          64.2058   91.1078   12.2114 C.2     1  UNL1        0.0100
      9 C          64.8269   90.9144   13.5630 C.3     1  UNL1        0.0808
     10 C          64.3542   89.8039   14.4537 C.3     1  UNL1        0.0127
     11 C          67.1846   92.7968   16.0783 C.3     1  UNL1        0.2520
     12 O          66.5420   91.6379   15.3755 O.2     1  UNL1       -0.4754
     13 C          62.3623   89.1821   12.0152 C.2     1  UNL1        0.3425
     14 O          60.9809   89.3598   12.5719 O.2     1  UNL1       -0.2448
     15 O          62.9881   87.8193   11.9821 O.3     1  UNL1       -0.4454
     16 C          62.1540   86.6190   11.6455 C.3     1  UNL1        0.2087
     17 C          61.7856   86.3377   10.2189 C.3     1  UNL1        0.0445
     18 C          62.7278   85.5719    9.3381 C.3     1  UNL1        0.0210
     19 C          62.3595   85.2906    7.9115 C.3     1  UNL1        0.0722
     20 N          61.0490   85.7752    7.3657 N.3     1  UNL1       -0.2727
     21 C          60.1069   86.5410    8.2464 C.3     1  UNL1        0.0722
     22 C          60.4751   86.8223    9.6731 C.3     1  UNL1        0.0210
     23 C          61.2070   85.9536    8.1538 C.3     1  UNL1        0.0722
     24 C          61.5401   86.2079    9.4438 C.3     1  UNL1        0.0210
@<TRIPOS>BOND
     1    11    12    1
     2    12     1    1
     3     1     2    2
     4     2     3    1
     5     3     4    2
     6     4     5    1
     7     5     6    2
     8     6     7    1
     9     7    13    1
    10    13    14    2
    11    13    15    1
    12    15    16    1
    13    16    17    1
    14    17    18    1
    15    18    19    1
    16    19    20    1
    17    20    21    1
    18    21    22    1
    19    20    23    1
    20    23    24    1
    21     7     8    2
    22     8     9    1
    23     9    10    1
    24     9     1    1
    25     8     4    1
    26    22    17    1
    27    24    17    1
@<TRIPOS>MOLECULE
*****
 24 27 0 0 0
SMALL
GASTEIGER

@<TRIPOS>ATOM
      1 C          61.9922   87.5417   10.2717 C.2     1  UNL1        0.1199
      2 C          62.0491   89.0265   10.0670 C.2     1  UNL1        0.0342
      3 C          62.6921   89.9021   11.1014 C.2     1  UNL1        0.0216
      4 C          63.2781   89.2928   12.3405 C.2     1  UNL1        0.0781
      5 N          63.9705   89.8979   13.5255 N.2     1  UNL1       -0.2439
      6 C          64.3415   88.7869   14.4626 C.2     1  UNL1        0.1050
      7 C          63.8784   87.4953   13.8567 C.2     1  UNL1        0.0926
      8 C          63.2212   87.8079   12.5451 C.2     1  UNL1        0.0100
      9 C          62.5782   86.9324   11.5107 C.3     1  UNL1        0.0808
     10 C          62.5212   85.4475   11.7154 C.3     1  UNL1        0.0127
     11 C          59.9437   86.9407    8.7909 C.3     1  UNL1        0.2520
     12 O          61.3492   86.6660    9.2373 O.2     1  UNL1       -0.4754
     13 C          64.0435   86.1306   14.4570 C.2     1  UNL1        0.3425
     14 O          65.4134   85.5387   14.6086 O.2     1  UNL1       -0.2448
     15 O          62.8388   85.3578   14.9058 O.3     1  UNL1       -0.4454
     16 C          62.9904   83.9454   15.3872 C.3     1  UNL1        0.2087
     17 C          62.9190   82.8085   14.4112 C.3     1  UNL1        0.0445
     18 C          61.7820   81.8324   14.4789 C.3     1  UNL1        0.0210
     19 C          61.7104   80.6956   13.5029 C.3     1  UNL1        0.0722
     20 N          62.7759   80.5348   12.4593 N.3     1  UNL1       -0.2727
     21 C          63.9129   81.5109   12.3917 C.3     1  UNL1        0.0722
     22 C          63.9844   82.6478   13.3677 C.3     1  UNL1        0.0210
     23 C          62.8579   81.1736   12.9725 C.3     1  UNL1        0.0722
     24 C          62.9225   82.2015   13.8550 C.3     1  UNL1        0.0210
@<TRIPOS>BOND
     1    11    12    1
     2    12     1    1
     3     1     2    2
     4     2     3    1
     5     3     4    2
     6     4     5    1
     7     5     6    2
     8     6     7    1
     9     7    13    1
    10    13    14    2
    11    13    15    1
    12    15    16    1
    13    16    17    1
    14    17    18    1
    15    18    19    1
    16    19    20    1
    17    20    21    1
    18    21    22    1
    19    20    23    1
    20    23    24    1
    21     7     8    2
    22     8     9    1
    23     9    10    1
    24     9     1    1
    25     8     4    1
    26    22    17    1
    27    24    17    1
@<TRIPOS>MOLECULE
*****
 24 27 0 0 0
SMALL
GASTEIGER

@<TRIPOS>ATOM
      1 C          61.6301   88.1994   10.0310 C.2     1  UNL1        0.1199
      2 C          61.6977   86.7235   10.2898 C.2     1  UNL1        0.0342
      3 C          62.4261   86.2058   11.4946 C.2     1  UNL1        0.0216
      4 C          63.0869   87.1641   12.4405 C.2     1  UNL1        0.0781
      5 N          63.8706   86.9500   13.7015 N.2     1  UNL1       -0.2439
      6 C          64.2874   88.2936   14.2219 C.2     1  UNL1        0.1050
      7 C          63.7613   89.3382   13.2827 C.2     1  UNL1        0.0926
      8 C          63.0194   88.6401   12.1817 C.2     1  UNL1        0.0100
      9 C          62.2910   89.1577   10.9769 C.3     1  UNL1        0.0808
     10 C          62.2234   90.6337   10.7181 C.3     1  UNL1        0.0127
     11 C          59.7115   87.9757    8.2935 C.3     1  UNL1        0.2520
     12 O          60.9017   88.7171    8.8261 O.2     1  UNL1       -0.4754
     13 C          63.9450   90.8205   13.4203 C.2     1  UNL1        0.3425
     14 O          63.5582   91.5089   14.6956 O.2     1  UNL1       -0.2448
     15 O          64.5154   91.6144   12.2826 O.3     1  UNL1       -0.4454
     16 C          65.7997   92.3679   12.4636 C.3     1  UNL1        0.2087
     17 C          66.4791   92.9876   11.2785 C.3     1  UNL1        0.0445
     18 C          66.1660   94.4022   10.8896 C.3     1  UNL1        0.0210
     19 C          66.8454   95.0220    9.7045 C.3     1  UNL1        0.0722
     20 N          67.8378   94.2273    8.9084 N.3     1  UNL1       -0.2727
     21 C          68.1508   92.8129    9.2974 C.3     1  UNL1        0.0722
     22 C          67.4715   92.1930   10.4824 C.3     1  UNL1        0.0210
     23 C          67.4909   93.8448    9.5498 C.3     1  UNL1        0.0722
     24 C          66.8766   93.2844   10.6214 C.3     1  UNL1        0.0210
@<TRIPOS>BOND
     1    11    12    1
     2    12     1    1
     3     1     2    2
     4     2     3    1
     5     3     4    2
     6     4     5    1
     7     5     6    2
     8     6     7    1
     9     7    13    1
    10    13    14    2
    11    13    15    1
    12    15    16    1
    13    16    17    1
    14    17    18    1
    15    18    19    1
    16    19    20    1
    17    20    21    1
    18    21    22    1
    19    20    23    1
    20    23    24    1
    21     7     8    2
    22     8     9    1
    23     9    10    1
    24     9     1    1
    25     8     4    1
    26    22    17    1
    27    24    17    1
@<TRIPOS>MOLECULE
*****
 24 27 0 0 0
SMALL
GASTEIGER

@<TRIPOS>ATOM
      1 C          62.4200   88.8977   10.4671 C.2     1  UNL1        0.1199
      2 C          62.6306   90.3304   10.0762 C.2     1  UNL1        0.0342
      3 C          63.2883   91.2801   11.0331 C.2     1  UNL1        0.0216
      4 C          63.7353   90.7969   12.3810 C.2     1  UNL1        0.0781
      5 N          64.4070   91.4958   13.5257 N.2     1  UNL1       -0.2439
      6 C          64.6115   90.4949   14.6241 C.2     1  UNL1        0.1050
      7 C          64.0662   89.1775   14.1582 C.2     1  UNL1        0.0926
      8 C          63.5247   89.3641   12.7719 C.2     1  UNL1        0.0100
      9 C          62.8671   88.4145   11.8149 C.3     1  UNL1        0.0808
     10 C          62.6565   86.9817   12.2058 C.3     1  UNL1        0.0127
     11 C          60.2661   87.8822    9.4283 C.3     1  UNL1        0.2520
     12 O          61.7624   87.9480    9.5101 O.2     1  UNL1       -0.4754
     13 C          64.0630   87.8981   14.9412 C.2     1  UNL1        0.3425
     14 O          63.2369   87.7839   16.1880 O.2     1  UNL1       -0.2448
     15 O          64.8859   86.7329   14.4774 O.3     1  UNL1       -0.4454
     16 C          64.7365   85.3970   15.1430 C.3     1  UNL1        0.2087
     17 C          64.0157   84.2852   14.4399 C.3     1  UNL1        0.0445
     18 C          64.4567   83.8519   13.0731 C.3     1  UNL1        0.0210
     19 C          63.7359   82.7401   12.3700 C.3     1  UNL1        0.0722
     20 N          62.5743   82.0615   13.0336 N.3     1  UNL1       -0.2727
     21 C          62.1334   82.4948   14.4002 C.3     1  UNL1        0.0722
     22 C          62.8541   83.6066   15.1034 C.3     1  UNL1        0.0210
     23 C          62.9381   82.6659   13.4583 C.3     1  UNL1        0.0722
     24 C          63.5898   83.6713   14.0940 C.3     1  UNL1        0.0210
@<TRIPOS>BOND
     1    11    12    1
     2    12     1    1
     3     1     2    2
     4     2     3    1
     5     3     4    2
     6     4     5    1
     7     5     6    2
     8     6     7    1
     9     7    13    1
    10    13    14    2
    11    13    15    1
    12    15    16    1
    13    16    17    1
    14    17    18    1
    15    18    19    1
    16    19    20    1
    17    20    21    1
    18    21    22    1
    19    20    23    1
    20    23    24    1
    21     7     8    2
    22     8     9    1
    23     9    10    1
    24     9     1    1
    25     8     4    1
    26    22    17    1
    27    24    17    1
@<TRIPOS>MOLECULE
*****
 24 27 0 0 0
SMALL
GASTEIGER

@<TRIPOS>ATOM
      1 C          65.8664   91.9550   14.0881 C.2     1  UNL1        0.1199
      2 C          66.3698   93.0318   13.1732 C.2     1  UNL1        0.0342
      3 C          65.7871   93.1816   11.7991 C.2     1  UNL1        0.0216
      4 C          64.7010   92.2544   11.3400 C.2     1  UNL1        0.0781
      5 N          63.9402   92.1603   10.0506 N.2     1  UNL1       -0.2439
      6 C          62.9667   91.0253   10.1687 C.2     1  UNL1        0.1050
      7 C          63.1258   90.4179   11.5310 C.2     1  UNL1        0.0926
      8 C          64.1976   91.1776   12.2549 C.2     1  UNL1        0.0100
      9 C          64.7803   91.0279   13.6289 C.3     1  UNL1        0.0808
     10 C          64.2770   89.9510   14.5438 C.3     1  UNL1        0.0127
     11 C          67.9163   92.0257   15.6827 C.3     1  UNL1        0.2520
     12 O          66.4491   91.8052   15.4622 O.2     1  UNL1       -0.4754
     13 C          62.3493   89.2551   12.0740 C.2     1  UNL1        0.3425
     14 O          61.0044   89.4779   12.6997 O.2     1  UNL1       -0.2448
     15 O          62.9177   87.8694   11.9912 O.3     1  UNL1       -0.4454
     16 C          62.1569   86.7878   11.2833 C.3     1  UNL1        0.2087
     17 C          62.6331   85.3671   11.3531 C.3     1  UNL1        0.0445
     18 C          62.5276   84.6032   12.6397 C.3     1  UNL1        0.0210
     19 C          63.0038   83.1824   12.7096 C.3     1  UNL1        0.0722
     20 N          63.5854   82.5256   11.4928 N.3     1  UNL1       -0.2727
     21 C          63.6908   83.2896   10.2063 C.3     1  UNL1        0.0722
     22 C          63.2147   84.7103   10.1364 C.3     1  UNL1        0.0210
     23 C          63.3378   83.3061   11.4059 C.3     1  UNL1        0.0722
     24 C          62.9073   84.5908   11.3428 C.3     1  UNL1        0.0210
@<TRIPOS>BOND
     1    11    12    1
     2    12     1    1
     3     1     2    2
     4     2     3    1
     5     3     4    2
     6     4     5    1
     7     5     6    2
     8     6     7    1
     9     7    13    1
    10    13    14    2
    11    13    15    1
    12    15    16    1
    13    16    17    1
    14    17    18    1
    15    18    19    1
    16    19    20    1
    17    20    21    1
    18    21    22    1
    19    20    23    1
    20    23    24    1
    21     7     8    2
    22     8     9    1
    23     9    10    1
    24     9     1    1
    25     8     4    1
    26    22    17    1
    27    24    17    1
@<TRIPOS>MOLECULE
*****
 24 27 0 0 0
SMALL
GASTEIGER

@<TRIPOS>ATOM
      1 C          63.6930   82.9543   12.3451 C.2     1  UNL1        0.1199
      2 C          64.1464   82.1944   11.1340 C.2     1  UNL1        0.0342
      3 C          63.9968   82.7993    9.7695 C.2     1  UNL1        0.0216
      4 C          63.3937   84.1641    9.6162 C.2     1  UNL1        0.0781
      5 N          63.1206   85.0109    8.4086 N.2     1  UNL1       -0.2439
      6 C          62.4984   86.2941    8.8734 C.2     1  UNL1        0.1050
      7 C          62.3870   86.2405   10.3683 C.2     1  UNL1        0.0926
      8 C          62.9404   84.9240   10.8274 C.2     1  UNL1        0.0100
      9 C          63.0900   84.3191   12.1918 C.3     1  UNL1        0.0808
     10 C          62.6366   85.0790   13.4030 C.3     1  UNL1        0.0127
     11 C          62.7804   81.4359   14.2455 C.3     1  UNL1        0.2520
     12 O          63.8426   82.3494   13.7096 O.2     1  UNL1       -0.4754
     13 C          61.8215   87.3147   11.2494 C.2     1  UNL1        0.3425
     14 O          60.3376   87.4261   11.4379 O.2     1  UNL1       -0.2448
     15 O          62.7399   88.2775   11.9419 O.3     1  UNL1       -0.4454
     16 C          62.4273   89.7445   11.9413 C.3     1  UNL1        0.2087
     17 C          63.5406   90.7486   11.9898 C.3     1  UNL1        0.0445
     18 C          64.3172   90.9466   13.2578 C.3     1  UNL1        0.0210
     19 C          65.4305   91.9507   13.3064 C.3     1  UNL1        0.0722
     20 N          65.7672   92.7568   12.0870 N.3     1  UNL1       -0.2727
     21 C          64.9907   92.5587   10.8190 C.3     1  UNL1        0.0722
     22 C          63.8773   91.5546   10.7704 C.3     1  UNL1        0.0210
     23 C          65.1487   92.2184   12.0120 C.3     1  UNL1        0.0722
     24 C          64.1420   91.3105   11.9682 C.3     1  UNL1        0.0210
@<TRIPOS>BOND
     1    11    12    1
     2    12     1    1
     3     1     2    2
     4     2     3    1
     5     3     4    2
     6     4     5    1
     7     5     6    2
     8     6     7    1
     9     7    13    1
    10    13    14    2
    11    13    15    1
    12    15    16    1
    13    16    17    1
    14    17    18    1
    15    18    19    1
    16    19    20    1
    17    20    21    1
    18    21    22    1
    19    20    23    1
    20    23    24    1
    21     7     8    2
    22     8     9    1
    23     9    10    1
    24     9     1    1
    25     8     4    1
    26    22    17    1
    27    24    17    1
@<TRIPOS>MOLECULE
*****
 24 27 0 0 0
SMALL
GASTEIGER

@<TRIPOS>ATOM
      1 C          63.2295   86.1299   12.8155 C.2     1  UNL1        0.1199
      2 C          62.4533   85.9161   11.5500 C.2     1  UNL1        0.0342
      3 C          62.0586   87.0907   10.7046 C.2     1  UNL1        0.0216
      4 C          62.4402   88.4792   11.1249 C.2     1  UNL1        0.0781
      5 N          62.1932   89.8204   10.5004 N.2     1  UNL1       -0.2439
      6 C          62.8168   90.8631   11.3801 C.2     1  UNL1        0.1050
      7 C          63.4492   90.1664   12.5482 C.2     1  UNL1        0.0926
      8 C          63.2165   88.6929   12.3905 C.2     1  UNL1        0.0100
      9 C          63.6111   87.5183   13.2358 C.3     1  UNL1        0.0808
     10 C          64.3874   87.7321   14.5014 C.3     1  UNL1        0.0127
     11 C          62.5687   84.1121   14.3127 C.3     1  UNL1        0.2520
     12 O          63.6242   84.9553   13.6609 O.2     1  UNL1       -0.4754
     13 C          64.1852   90.8270   13.6760 C.2     1  UNL1        0.3425
     14 O          63.4470   91.2341   14.9167 O.2     1  UNL1       -0.2448
     15 O          65.6593   91.0806   13.5630 O.3     1  UNL1       -0.4454
     16 C          66.1602   92.4524   13.2211 C.3     1  UNL1        0.2087
     17 C          66.6795   92.7396   11.8435 C.3     1  UNL1        0.0445
     18 C          67.8153   91.9331   11.2869 C.3     1  UNL1        0.0210
     19 C          68.3346   92.2201    9.9093 C.3     1  UNL1        0.0722
     20 N          67.7180   93.3137    9.0881 N.3     1  UNL1       -0.2727
     21 C          66.5823   94.1201    9.6446 C.3     1  UNL1        0.0722
     22 C          66.0630   93.8330   11.0223 C.3     1  UNL1        0.0210
     23 C          67.3995   93.1933    9.8378 C.3     1  UNL1        0.0722
     24 C          66.9300   92.9337   11.0835 C.3     1  UNL1        0.0210
@<TRIPOS>BOND
     1    11    12    1
     2    12     1    1
     3     1     2    2
     4     2     3    1
     5     3     4    2
     6     4     5    1
     7     5     6    2
     8     6     7    1
     9     7    13    1
    10    13    14    2
    11    13    15    1
    12    15    16    1
    13    16    17    1
    14    17    18    1
    15    18    19    1
    16    19    20    1
    17    20    21    1
    18    21    22    1
    19    20    23    1
    20    23    24    1
    21     7     8    2
    22     8     9    1
    23     9    10    1
    24     9     1    1
    25     8     4    1
    26    22    17    1
    27    24    17    1
@<TRIPOS>MOLECULE
*****
 24 27 0 0 0
SMALL
GASTEIGER

@<TRIPOS>ATOM
      1 C          63.5813   90.5484   12.4936 C.2     1  UNL1        0.1199
      2 C          62.8557   90.6435   11.1843 C.2     1  UNL1        0.0342
      3 C          62.3043   89.4059   10.5407 C.2     1  UNL1        0.0216
      4 C          62.4784   88.0731   11.2065 C.2     1  UNL1        0.0781
      5 N          62.0470   86.6911   10.8141 N.2     1  UNL1       -0.2439
      6 C          62.5059   85.7419   11.8810 C.2     1  UNL1        0.1050
      7 C          63.2210   86.5372   12.9328 C.2     1  UNL1        0.0926
      8 C          63.2040   87.9780   12.5159 C.2     1  UNL1        0.0100
      9 C          63.7554   89.2156   13.1595 C.3     1  UNL1        0.0808
     10 C          64.4810   89.1205   14.4688 C.3     1  UNL1        0.0127
     11 C          65.4142   92.3841   12.6370 C.3     1  UNL1        0.2520
     12 O          64.1328   91.7860   13.1372 O.2     1  UNL1       -0.4754
     13 C          63.8437   85.9880   14.1820 C.2     1  UNL1        0.3425
     14 O          63.2123   86.2574   15.5157 O.2     1  UNL1       -0.2448
     15 O          65.0979   85.1696   14.0976 O.3     1  UNL1       -0.4454
     16 C          65.0272   83.6754   14.2084 C.3     1  UNL1        0.2087
     17 C          64.3178   82.8779   13.1545 C.3     1  UNL1        0.0445
     18 C          64.6652   83.0701   11.7079 C.3     1  UNL1        0.0210
     19 C          63.9558   82.2727   10.6539 C.3     1  UNL1        0.0722
     20 N          62.8991   81.2830   11.0465 N.3     1  UNL1       -0.2727
     21 C          62.5518   81.0908   12.4930 C.3     1  UNL1        0.0722
     22 C          63.2611   81.8883   13.5470 C.3     1  UNL1        0.0210
     23 C          63.2605   81.6970   11.6597 C.3     1  UNL1        0.0722
     24 C          63.9019   82.4181   12.6127 C.3     1  UNL1        0.0210
@<TRIPOS>BOND
     1    11    12    1
     2    12     1    1
     3     1     2    2
     4     2     3    1
     5     3     4    2
     6     4     5    1
     7     5     6    2
     8     6     7    1
     9     7    13    1
    10    13    14    2
    11    13    15    1
    12    15    16    1
    13    16    17    1
    14    17    18    1
    15    18    19    1
    16    19    20    1
    17    20    21    1
    18    21    22    1
    19    20    23    1
    20    23    24    1
    21     7     8    2
    22     8     9    1
    23     9    10    1
    24     9     1    1
    25     8     4    1
    26    22    17    1
    27    24    17    1
