@<TRIPOS>MOLECULE
*****
 43 48 0 0 0
SMALL
GASTEIGER

@<TRIPOS>ATOM
      1 C          58.6897   86.7662    8.4804 C.3     1  UNL1        0.0312
      2 C          59.5667   87.9606    8.2476 C.2     1  UNL1        0.0136
      3 C          59.3725   88.8068    7.0244 C.2     1  UNL1        0.0107
      4 C          60.2494   90.0011    6.7916 C.2     1  UNL1        0.0509
      5 C          61.3208   90.3495    7.7821 C.2     1  UNL1        0.0613
      6 C          61.5151   89.5033    9.0053 C.2     1  UNL1        0.2246
      7 N          62.4810   89.5991   10.1488 N.2     1  UNL1       -0.0378
      8 C          62.2010   88.4638   11.0884 C.2     1  UNL1        0.3605
      9 N          61.0620   87.6664   10.5255 N.2     1  UNL1       -0.0547
     10 C          60.6380   88.3089    9.2380 C.3     1  UNL1        0.2976
     11 C          62.9317   88.1764   12.3664 C.3     1  UNL1        0.2246
     12 C          63.4398   89.3074   13.2106 C.2     1  UNL1        0.0436
     13 C          64.1705   89.0198   14.4886 C.2     1  UNL1        0.0288
     14 C          64.3931   87.6014   14.9226 C.2     1  UNL1        0.0896
     15 N          63.8849   86.4703   14.0785 N.am    1  UNL1       -0.1770
     16 C          63.1542   86.7579   12.8004 C.2     1  UNL1        0.2627
     17 O          62.6461   85.6269   11.9563 O.2     1  UNL1       -0.2719
     18 N          63.2174   90.7259   12.7767 N.pl3   1  UNL1       -0.3329
     19 H          62.4452   91.2305   13.1207 H       1  UNL1        0.1466
     20 C          64.1713   91.3756   11.8186 C.3     1  UNL1        0.1211
     21 C          65.1713   92.3757   12.3183 C.3     1  UNL1        0.1522
     22 O          65.3054   92.6309   13.7904 O.3     1  UNL1       -0.3783
     23 H          64.6775   92.0717   14.2740 H       1  UNL1        0.2109
     24 C          66.0372   93.1205   11.3460 C.ar    1  UNL1        0.0067
     25 C          65.9428   94.6144   11.2493 C.ar    1  UNL1       -0.0018
     26 C          66.8087   95.3593   10.2769 C.ar    1  UNL1        0.0006
     27 C          67.7691   94.6102    9.4013 C.ar    1  UNL1        0.0114
     28 C          67.8635   93.1164    9.4981 C.ar    1  UNL1        0.0574
     29 CL         68.8238   92.3673    8.6225 Cl      1  UNL1       -0.0823
     30 C          66.9976   92.3715   10.4704 C.ar    1  UNL1        0.0095
     31 N          60.0551   90.8473    5.5683 N.pl3   1  UNL1       -0.3073
     32 C          61.2304   91.1986    4.7049 C.3     1  UNL1        0.0922
     33 C          61.0361   92.0447    3.4817 C.3     1  UNL1        0.0374
     34 C          59.6666   92.5396    3.1219 C.3     1  UNL1        0.0610
     35 C          58.4914   92.1883    3.9852 C.3     1  UNL1        0.0374
     36 C          58.6856   91.3422    5.2084 C.3     1  UNL1        0.0922
     37 N          59.4723   93.3857    1.8987 N.3     1  UNL1       -0.2715
     38 C          60.1103   94.7407    1.8148 C.3     1  UNL1        0.0896
     39 C          59.9160   95.5869    0.5917 C.3     1  UNL1        0.0897
     40 N          59.0836   95.0782   -0.5478 N.3     1  UNL1       -0.2691
     41 C          58.8893   95.9243   -1.7709 C.3     1  UNL1        0.0897
     42 C          58.4456   93.7232   -0.4639 C.3     1  UNL1        0.0897
     43 C          58.6399   92.8770    0.7592 C.3     1  UNL1        0.0896
@<TRIPOS>BOND
     1     1     2    1
     2     2     3    2
     3     3     4    1
     4     4    31    1
     5    31    32    1
     6    32    33    1
     7    33    34    1
     8    34    37    1
     9    37    38    1
    10    38    39    1
    11    39    40    1
    12    40    41    1
    13    40    42    1
    14    42    43    1
    15    34    35    1
    16    35    36    1
    17     4     5    2
    18     5     6    1
    19     6     7    2
    20     7     8    1
    21     8    11    1
    22    11    12    1
    23    12    18    1
    24    18    20    1
    25    20    21    1
    26    21    22    1
    27    21    24    1
    28    24    25   ar
    29    25    26   ar
    30    26    27   ar
    31    27    28   ar
    32    28    29    1
    33    28    30   ar
    34    12    13    2
    35    13    14    1
    36    14    15    2
    37    15    16    1
    38    16    17    2
    39     8     9    2
    40     9    10    1
    41    10     2    1
    42    36    31    1
    43    10     6    1
    44    43    37    1
    45    16    11    1
    46    30    24   ar
    47    18    19    1
    48    22    23    1
@<TRIPOS>MOLECULE
*****
 43 48 0 0 0
SMALL
GASTEIGER

@<TRIPOS>ATOM
      1 C          58.4353   86.4475    8.2144 C.3     1  UNL1        0.0312
      2 C          59.3861   87.5995    8.0774 C.2     1  UNL1        0.0136
      3 C          59.2390   88.5618    6.9362 C.2     1  UNL1        0.0107
      4 C          60.1897   89.7138    6.7992 C.2     1  UNL1        0.0509
      5 C          61.2878   89.9036    7.8034 C.2     1  UNL1        0.0613
      6 C          61.4349   88.9413    8.9446 C.2     1  UNL1        0.2246
      7 N          62.4125   88.8732   10.0803 N.2     1  UNL1       -0.0378
      8 C          62.0658   87.6790   10.9192 C.2     1  UNL1        0.3605
      9 N          60.8740   87.0091   10.3020 N.2     1  UNL1       -0.0547
     10 C          60.4841   87.7893    9.0816 C.3     1  UNL1        0.2976
     11 C          62.7847   87.2330   12.1578 C.3     1  UNL1        0.2246
     12 C          63.5136   88.2345   13.0037 C.2     1  UNL1        0.0436
     13 C          64.2325   87.7884   14.2424 C.2     1  UNL1        0.0288
     14 C          64.2225   86.3408   14.6351 C.2     1  UNL1        0.0896
     15 N          63.4936   85.3392   13.7893 N.am    1  UNL1       -0.1770
     16 C          62.7747   85.7854   12.5506 C.2     1  UNL1        0.2627
     17 O          62.0458   84.7838   11.7047 O.2     1  UNL1       -0.2719
     18 N          63.5237   89.6822   12.6110 N.pl3   1  UNL1       -0.3329
     19 H          63.7973   89.9437   11.7022 H       1  UNL1        0.1466
     20 C          63.1170   90.7313   13.6029 C.3     1  UNL1        0.1211
     21 C          63.8563   90.8625   14.9014 C.3     1  UNL1        0.1522
     22 O          63.2244   90.3864   16.1758 O.3     1  UNL1       -0.3783
     23 H          62.3452   90.0238   15.9849 H       1  UNL1        0.2109
     24 C          65.2277   91.4698   14.9255 C.ar    1  UNL1        0.0067
     25 C          65.6684   92.2802   16.1083 C.ar    1  UNL1       -0.0018
     26 C          67.0397   92.8875   16.1324 C.ar    1  UNL1        0.0006
     27 C          67.9704   92.6844   14.9737 C.ar    1  UNL1        0.0114
     28 C          67.5297   91.8740   13.7910 C.ar    1  UNL1        0.0574
     29 CL         68.4604   91.6709   12.6323 Cl      1  UNL1       -0.0823
     30 C          66.1584   91.2667   13.7668 C.ar    1  UNL1        0.0095
     31 N          60.0425   90.6761    5.6579 N.pl3   1  UNL1       -0.3073
     32 C          58.6997   91.2652    5.3421 C.3     1  UNL1        0.0922
     33 C          58.5525   92.2275    4.2009 C.3     1  UNL1        0.0374
     34 C          59.7482   92.6007    3.3755 C.3     1  UNL1        0.0610
     35 C          61.0910   92.0115    3.6914 C.3     1  UNL1        0.0374
     36 C          61.2382   91.0493    4.8326 C.3     1  UNL1        0.0922
     37 N          59.6011   93.5629    2.2343 N.3     1  UNL1       -0.2715
     38 C          60.1201   94.9643    2.3633 C.3     1  UNL1        0.0896
     39 C          59.9731   95.9267    1.2222 C.3     1  UNL1        0.0897
     40 N          59.3069   95.4876   -0.0481 N.3     1  UNL1       -0.2691
     41 C          59.1598   96.4499   -1.1893 C.3     1  UNL1        0.0897
     42 C          58.7879   94.0862   -0.1770 C.3     1  UNL1        0.0897
     43 C          58.9349   93.1238    0.9641 C.3     1  UNL1        0.0896
@<TRIPOS>BOND
     1     1     2    1
     2     2     3    2
     3     3     4    1
     4     4    31    1
     5    31    32    1
     6    32    33    1
     7    33    34    1
     8    34    37    1
     9    37    38    1
    10    38    39    1
    11    39    40    1
    12    40    41    1
    13    40    42    1
    14    42    43    1
    15    34    35    1
    16    35    36    1
    17     4     5    2
    18     5     6    1
    19     6     7    2
    20     7     8    1
    21     8    11    1
    22    11    12    1
    23    12    18    1
    24    18    20    1
    25    20    21    1
    26    21    22    1
    27    21    24    1
    28    24    25   ar
    29    25    26   ar
    30    26    27   ar
    31    27    28   ar
    32    28    29    1
    33    28    30   ar
    34    12    13    2
    35    13    14    1
    36    14    15    2
    37    15    16    1
    38    16    17    2
    39     8     9    2
    40     9    10    1
    41    10     2    1
    42    36    31    1
    43    10     6    1
    44    43    37    1
    45    16    11    1
    46    30    24   ar
    47    18    19    1
    48    22    23    1
@<TRIPOS>MOLECULE
*****
 43 48 0 0 0
SMALL
GASTEIGER

@<TRIPOS>ATOM
      1 C          60.6677   96.8539    1.1428 C.3     1  UNL1        0.0312
      2 C          60.2564   95.4142    1.0535 C.2     1  UNL1        0.0136
      3 C          60.2682   94.5533    2.2819 C.2     1  UNL1        0.0107
      4 C          59.8570   93.1136    2.1927 C.2     1  UNL1        0.0509
      5 C          59.4339   92.5346    0.8751 C.2     1  UNL1        0.0613
      6 C          59.4222   93.3955   -0.3532 C.2     1  UNL1        0.2246
      7 N          59.0564   93.1053   -1.7787 N.2     1  UNL1       -0.0378
      8 C          59.2415   94.3658   -2.5705 C.2     1  UNL1        0.3605
      9 N          59.7218   95.4349   -1.6344 N.2     1  UNL1       -0.0547
     10 C          59.8334   94.8352   -0.2640 C.3     1  UNL1        0.2976
     11 C          58.9905   94.5286   -4.0403 C.3     1  UNL1        0.2246
     12 C          60.1106   94.9334   -4.9522 C.2     1  UNL1        0.0436
     13 C          59.8595   95.0962   -6.4220 C.2     1  UNL1        0.0288
     14 C          58.4884   94.8541   -6.9801 C.2     1  UNL1        0.0896
     15 N          57.3683   94.4492   -6.0683 N.am    1  UNL1       -0.1770
     16 C          57.6194   94.2864   -4.5984 C.2     1  UNL1        0.2627
     17 O          56.4993   93.8816   -3.6866 O.2     1  UNL1       -0.2719
     18 N          61.4818   95.1756   -4.3942 N.pl3   1  UNL1       -0.3329
     19 H          61.8175   96.0957   -4.2953 H       1  UNL1        0.1466
     20 C          62.3414   94.0158   -3.9869 C.3     1  UNL1        0.1211
     21 C          63.6906   94.2595   -3.3785 C.3     1  UNL1        0.1522
     22 O          64.9251   94.1505   -4.2234 O.3     1  UNL1       -0.3783
     23 H          64.6760   93.9171   -5.1314 H       1  UNL1        0.2109
     24 C          63.8052   94.6121   -1.9250 C.ar    1  UNL1        0.0067
     25 C          64.1884   96.0043   -1.5190 C.ar    1  UNL1       -0.0018
     26 C          64.3030   96.3570   -0.0655 C.ar    1  UNL1        0.0006
     27 C          64.0345   95.3174    0.9819 C.ar    1  UNL1        0.0114
     28 C          63.6513   93.9252    0.5759 C.ar    1  UNL1        0.0574
     29 CL         63.3827   92.8856    1.6233 Cl      1  UNL1       -0.0823
     30 C          63.5367   93.5725   -0.8776 C.ar    1  UNL1        0.0095
     31 N          59.8687   92.2527    3.4211 N.pl3   1  UNL1       -0.3073
     32 C          58.5938   91.9943    4.1680 C.3     1  UNL1        0.0922
     33 C          58.6056   91.1335    5.3963 C.3     1  UNL1        0.0374
     34 C          59.8922   90.5311    5.8777 C.3     1  UNL1        0.0610
     35 C          61.1671   90.7895    5.1308 C.3     1  UNL1        0.0374
     36 C          61.1553   91.6504    3.9025 C.3     1  UNL1        0.0922
     37 N          59.9040   89.6702    7.1060 N.3     1  UNL1       -0.2715
     38 C          59.3229   88.2881    7.0589 C.3     1  UNL1        0.0896
     39 C          59.3347   87.4272    8.2872 C.3     1  UNL1        0.0897
     40 N          59.9276   87.9484    9.5627 N.3     1  UNL1       -0.2691
     41 C          59.9394   87.0875   10.7910 C.3     1  UNL1        0.0897
     42 C          60.5087   89.3305    9.6098 C.3     1  UNL1        0.0897
     43 C          60.4969   90.1914    8.3815 C.3     1  UNL1        0.0896
@<TRIPOS>BOND
     1     1     2    1
     2     2     3    2
     3     3     4    1
     4     4    31    1
     5    31    32    1
     6    32    33    1
     7    33    34    1
     8    34    37    1
     9    37    38    1
    10    38    39    1
    11    39    40    1
    12    40    41    1
    13    40    42    1
    14    42    43    1
    15    34    35    1
    16    35    36    1
    17     4     5    2
    18     5     6    1
    19     6     7    2
    20     7     8    1
    21     8    11    1
    22    11    12    1
    23    12    18    1
    24    18    20    1
    25    20    21    1
    26    21    22    1
    27    21    24    1
    28    24    25   ar
    29    25    26   ar
    30    26    27   ar
    31    27    28   ar
    32    28    29    1
    33    28    30   ar
    34    12    13    2
    35    13    14    1
    36    14    15    2
    37    15    16    1
    38    16    17    2
    39     8     9    2
    40     9    10    1
    41    10     2    1
    42    36    31    1
    43    10     6    1
    44    43    37    1
    45    16    11    1
    46    30    24   ar
    47    18    19    1
    48    22    23    1
@<TRIPOS>MOLECULE
*****
 43 48 0 0 0
SMALL
GASTEIGER

@<TRIPOS>ATOM
      1 C          58.4938   86.5720    8.1855 C.3     1  UNL1        0.0312
      2 C          59.4240   87.7392    8.0362 C.2     1  UNL1        0.0136
      3 C          59.2679   88.6793    6.8777 C.2     1  UNL1        0.0107
      4 C          60.1980   89.8465    6.7284 C.2     1  UNL1        0.0509
      5 C          61.2844   90.0737    7.7376 C.2     1  UNL1        0.0613
      6 C          61.4404   89.1337    8.8960 C.2     1  UNL1        0.2246
      7 N          62.4101   89.1031   10.0400 N.2     1  UNL1       -0.0378
      8 C          62.0791   87.9169   10.8964 C.2     1  UNL1        0.3605
      9 N          60.9050   87.2144   10.2816 N.2     1  UNL1       -0.0547
     10 C          60.5102   87.9665    9.0453 C.3     1  UNL1        0.2976
     11 C          62.7964   87.5053   12.1479 C.3     1  UNL1        0.2246
     12 C          62.8576   86.0576   12.5357 C.2     1  UNL1        0.0436
     13 C          63.5749   85.6462   13.7872 C.2     1  UNL1        0.0288
     14 C          64.2310   86.6823   14.6508 C.2     1  UNL1        0.0896
     15 N          64.1699   88.1300   14.2630 N.am    1  UNL1       -0.1770
     16 C          63.4526   88.5415   13.0115 C.2     1  UNL1        0.2627
     17 O          63.3914   89.9892   12.6236 O.2     1  UNL1       -0.2719
     18 N          62.2014   85.0214   11.6722 N.pl3   1  UNL1       -0.3329
     19 H          61.2696   84.7549   11.8450 H       1  UNL1        0.1466
     20 C          62.9650   84.3912   10.5453 C.3     1  UNL1        0.1211
     21 C          63.7382   83.1271   10.7779 C.3     1  UNL1        0.1522
     22 O          64.7857   82.6968    9.7943 O.3     1  UNL1       -0.3783
     23 H          64.8360   83.3426    9.0723 H       1  UNL1        0.2109
     24 C          63.4637   82.2931   11.9941 C.ar    1  UNL1        0.0067
     25 C          64.6008   81.8122   12.8460 C.ar    1  UNL1       -0.0018
     26 C          64.3263   80.9782   14.0622 C.ar    1  UNL1        0.0006
     27 C          62.9148   80.6252   14.4266 C.ar    1  UNL1        0.0114
     28 C          61.7777   81.1061   13.5747 C.ar    1  UNL1        0.0574
     29 CL         60.3661   80.7530   13.9391 Cl      1  UNL1       -0.0823
     30 C          62.0521   81.9400   12.3585 C.ar    1  UNL1        0.0095
     31 N          60.0419   90.7865    5.5699 N.pl3   1  UNL1       -0.3073
     32 C          61.2240   91.1171    4.7078 C.3     1  UNL1        0.0922
     33 C          61.0680   92.0571    3.5493 C.3     1  UNL1        0.0374
     34 C          59.7298   92.6665    3.2530 C.3     1  UNL1        0.0610
     35 C          58.5476   92.3360    4.1152 C.3     1  UNL1        0.0374
     36 C          58.7037   91.3959    5.2736 C.3     1  UNL1        0.0922
     37 N          59.5736   93.6065    2.0946 N.3     1  UNL1       -0.2715
     38 C          58.9303   93.1322    0.8253 C.3     1  UNL1        0.0896
     39 C          58.7741   94.0721   -0.3332 C.3     1  UNL1        0.0897
     40 N          59.2612   95.4865   -0.2224 N.3     1  UNL1       -0.2691
     41 C          59.1050   96.4265   -1.3808 C.3     1  UNL1        0.0897
     42 C          59.9044   95.9609    1.0470 C.3     1  UNL1        0.0897
     43 C          60.0607   95.0209    2.2055 C.3     1  UNL1        0.0896
@<TRIPOS>BOND
     1     1     2    1
     2     2     3    2
     3     3     4    1
     4     4    31    1
     5    31    32    1
     6    32    33    1
     7    33    34    1
     8    34    37    1
     9    37    38    1
    10    38    39    1
    11    39    40    1
    12    40    41    1
    13    40    42    1
    14    42    43    1
    15    34    35    1
    16    35    36    1
    17     4     5    2
    18     5     6    1
    19     6     7    2
    20     7     8    1
    21     8    11    1
    22    11    12    1
    23    12    18    1
    24    18    20    1
    25    20    21    1
    26    21    22    1
    27    21    24    1
    28    24    25   ar
    29    25    26   ar
    30    26    27   ar
    31    27    28   ar
    32    28    29    1
    33    28    30   ar
    34    12    13    2
    35    13    14    1
    36    14    15    2
    37    15    16    1
    38    16    17    2
    39     8     9    2
    40     9    10    1
    41    10     2    1
    42    36    31    1
    43    10     6    1
    44    43    37    1
    45    16    11    1
    46    30    24   ar
    47    18    19    1
    48    22    23    1
@<TRIPOS>MOLECULE
*****
 43 48 0 0 0
SMALL
GASTEIGER

@<TRIPOS>ATOM
      1 C          58.8782   86.7718    8.5942 C.3     1  UNL1        0.0312
      2 C          59.6992   88.0011    8.3395 C.2     1  UNL1        0.0136
      3 C          59.4722   88.8104    7.0972 C.2     1  UNL1        0.0107
      4 C          60.2931   90.0396    6.8424 C.2     1  UNL1        0.0509
      5 C          61.3411   90.4597    7.8301 C.2     1  UNL1        0.0613
      6 C          61.5680   89.6504    9.0725 C.2     1  UNL1        0.2246
      7 N          62.5218   89.8165   10.2182 N.2     1  UNL1       -0.0378
      8 C          62.2902   88.6899   11.1811 C.2     1  UNL1        0.3605
      9 N          61.1934   87.8275   10.6304 N.2     1  UNL1       -0.0547
     10 C          60.7471   88.4211    9.3272 C.3     1  UNL1        0.2976
     11 C          63.0263   88.4651   12.4686 C.3     1  UNL1        0.2246
     12 C          63.3020   87.0684   12.9409 C.2     1  UNL1        0.0436
     13 C          64.0381   86.8437   14.2285 C.2     1  UNL1        0.0288
     14 C          64.4984   88.0157   15.0437 C.2     1  UNL1        0.0896
     15 N          64.2227   89.4124   14.5714 N.am    1  UNL1       -0.1770
     16 C          63.4866   89.6371   13.2838 C.2     1  UNL1        0.2627
     17 O          63.2109   91.0338   12.8115 O.2     1  UNL1       -0.2719
     18 N          62.8418   85.8964   12.1257 N.pl3   1  UNL1       -0.3329
     19 H          62.7154   85.9919   11.1541 H       1  UNL1        0.1466
     20 C          62.5741   84.5789   12.7910 C.3     1  UNL1        0.1211
     21 C          63.6254   83.5091   12.7863 C.3     1  UNL1        0.1522
     22 O          65.0641   83.8703   13.0093 O.3     1  UNL1       -0.3783
     23 H          65.1405   84.8286   13.1392 H       1  UNL1        0.2109
     24 C          63.2381   82.0779   12.5586 C.ar    1  UNL1        0.0067
     25 C          62.8524   81.2113   13.7205 C.ar    1  UNL1       -0.0018
     26 C          62.4651   79.7802   13.4927 C.ar    1  UNL1        0.0006
     27 C          62.4635   79.2156   12.1030 C.ar    1  UNL1        0.0114
     28 C          62.8493   80.0823   10.9411 C.ar    1  UNL1        0.0574
     29 CL         62.8478   79.5177    9.5514 Cl      1  UNL1       -0.0823
     30 C          63.2366   81.5134   11.1688 C.ar    1  UNL1        0.0095
     31 N          60.0661   90.8490    5.6000 N.pl3   1  UNL1       -0.3073
     32 C          61.2302   91.2511    4.7437 C.3     1  UNL1        0.0922
     33 C          61.0033   92.0604    3.5013 C.3     1  UNL1        0.0374
     34 C          59.6122   92.4676    3.1152 C.3     1  UNL1        0.0610
     35 C          58.4481   92.0655    3.9715 C.3     1  UNL1        0.0374
     36 C          58.6750   91.2562    5.2139 C.3     1  UNL1        0.0922
     37 N          59.3852   93.2768    1.8729 N.3     1  UNL1       -0.2715
     38 C          60.0768   94.5968    1.7008 C.3     1  UNL1        0.0896
     39 C          59.8498   95.4061    0.4584 C.3     1  UNL1        0.0897
     40 N          58.9312   94.8956   -0.6119 N.3     1  UNL1       -0.2691
     41 C          58.7041   95.7049   -1.8542 C.3     1  UNL1        0.0897
     42 C          58.2396   93.5757   -0.4397 C.3     1  UNL1        0.0897
     43 C          58.4666   92.7663    0.8026 C.3     1  UNL1        0.0896
@<TRIPOS>BOND
     1     1     2    1
     2     2     3    2
     3     3     4    1
     4     4    31    1
     5    31    32    1
     6    32    33    1
     7    33    34    1
     8    34    37    1
     9    37    38    1
    10    38    39    1
    11    39    40    1
    12    40    41    1
    13    40    42    1
    14    42    43    1
    15    34    35    1
    16    35    36    1
    17     4     5    2
    18     5     6    1
    19     6     7    2
    20     7     8    1
    21     8    11    1
    22    11    12    1
    23    12    18    1
    24    18    20    1
    25    20    21    1
    26    21    22    1
    27    21    24    1
    28    24    25   ar
    29    25    26   ar
    30    26    27   ar
    31    27    28   ar
    32    28    29    1
    33    28    30   ar
    34    12    13    2
    35    13    14    1
    36    14    15    2
    37    15    16    1
    38    16    17    2
    39     8     9    2
    40     9    10    1
    41    10     2    1
    42    36    31    1
    43    10     6    1
    44    43    37    1
    45    16    11    1
    46    30    24   ar
    47    18    19    1
    48    22    23    1
@<TRIPOS>MOLECULE
*****
 43 48 0 0 0
SMALL
GASTEIGER

@<TRIPOS>ATOM
      1 C          60.9269   96.6988    0.9862 C.3     1  UNL1        0.0312
      2 C          60.1774   95.3997    1.0111 C.2     1  UNL1        0.0136
      3 C          60.2761   94.4998    2.2070 C.2     1  UNL1        0.0107
      4 C          59.5266   93.2008    2.2320 C.2     1  UNL1        0.0509
      5 C          58.6784   92.8016    1.0609 C.2     1  UNL1        0.0613
      6 C          58.5798   93.7015   -0.1350 C.2     1  UNL1        0.2246
      7 N          57.8283   93.5751   -1.4270 N.2     1  UNL1       -0.0378
      8 C          58.1133   94.7960   -2.2504 C.2     1  UNL1        0.3605
      9 N          59.0410   95.6771   -1.4674 N.2     1  UNL1       -0.0547
     10 C          59.3293   95.0006   -0.1599 C.3     1  UNL1        0.2976
     11 C          57.5667   95.0852   -3.6170 C.3     1  UNL1        0.2246
     12 C          58.3391   95.9535   -4.5655 C.2     1  UNL1        0.0436
     13 C          57.7923   96.2426   -5.9321 C.2     1  UNL1        0.0288
     14 C          56.4733   95.6635   -6.3502 C.2     1  UNL1        0.0896
     15 N          55.7010   94.7953   -5.4018 N.am    1  UNL1       -0.1770
     16 C          56.2477   94.5061   -4.0352 C.2     1  UNL1        0.2627
     17 O          55.4753   93.6379   -3.0867 O.2     1  UNL1       -0.2719
     18 N          59.6581   96.5326   -4.1474 N.pl3   1  UNL1       -0.3329
     19 H          59.7517   96.9563   -3.2637 H       1  UNL1        0.1466
     20 C          60.8344   96.4661   -5.0757 C.3     1  UNL1        0.1211
     21 C          61.3155   95.1389   -5.5828 C.3     1  UNL1        0.1522
     22 O          60.9351   94.6792   -6.9590 O.3     1  UNL1       -0.3783
     23 H          60.3804   95.3526   -7.3830 H       1  UNL1        0.2109
     24 C          62.1771   94.2715   -4.7137 C.ar    1  UNL1        0.0067
     25 C          63.3567   93.5562   -5.3026 C.ar    1  UNL1       -0.0018
     26 C          64.2183   92.6888   -4.4335 C.ar    1  UNL1        0.0006
     27 C          63.9002   92.5366   -2.9755 C.ar    1  UNL1        0.0114
     28 C          62.7206   93.2519   -2.3867 C.ar    1  UNL1        0.0574
     29 CL         62.4025   93.0997   -0.9287 Cl      1  UNL1       -0.0823
     30 C          61.8590   94.1193   -3.2558 C.ar    1  UNL1        0.0095
     31 N          59.6253   92.3007    3.4280 N.pl3   1  UNL1       -0.3073
     32 C          60.9571   91.7505    3.8447 C.3     1  UNL1        0.0922
     33 C          61.0557   90.8505    5.0407 C.3     1  UNL1        0.0374
     34 C          59.8226   90.5008    5.8199 C.3     1  UNL1        0.0610
     35 C          58.4909   91.0510    5.4031 C.3     1  UNL1        0.0374
     36 C          58.3922   91.9510    4.2072 C.3     1  UNL1        0.0922
     37 N          59.9212   89.6009    7.0158 N.3     1  UNL1       -0.2715
     38 C          60.5529   90.1013    8.2810 C.3     1  UNL1        0.0896
     39 C          60.6515   89.2014    9.4770 C.3     1  UNL1        0.0897
     40 N          60.1185   87.8010    9.4079 N.3     1  UNL1       -0.2691
     41 C          60.2170   86.9011   10.6038 C.3     1  UNL1        0.0897
     42 C          59.4868   87.3006    8.1427 C.3     1  UNL1        0.0897
     43 C          59.3882   88.2005    6.9467 C.3     1  UNL1        0.0896
@<TRIPOS>BOND
     1     1     2    1
     2     2     3    2
     3     3     4    1
     4     4    31    1
     5    31    32    1
     6    32    33    1
     7    33    34    1
     8    34    37    1
     9    37    38    1
    10    38    39    1
    11    39    40    1
    12    40    41    1
    13    40    42    1
    14    42    43    1
    15    34    35    1
    16    35    36    1
    17     4     5    2
    18     5     6    1
    19     6     7    2
    20     7     8    1
    21     8    11    1
    22    11    12    1
    23    12    18    1
    24    18    20    1
    25    20    21    1
    26    21    22    1
    27    21    24    1
    28    24    25   ar
    29    25    26   ar
    30    26    27   ar
    31    27    28   ar
    32    28    29    1
    33    28    30   ar
    34    12    13    2
    35    13    14    1
    36    14    15    2
    37    15    16    1
    38    16    17    2
    39     8     9    2
    40     9    10    1
    41    10     2    1
    42    36    31    1
    43    10     6    1
    44    43    37    1
    45    16    11    1
    46    30    24   ar
    47    18    19    1
    48    22    23    1
@<TRIPOS>MOLECULE
*****
 43 48 0 0 0
SMALL
GASTEIGER

@<TRIPOS>ATOM
      1 C          62.1440   95.9863    0.5849 C.3     1  UNL1        0.0312
      2 C          61.0785   94.9478    0.7754 C.2     1  UNL1        0.0136
      3 C          61.0654   94.1056    2.0166 C.2     1  UNL1        0.0107
      4 C          60.0001   93.0671    2.2071 C.2     1  UNL1        0.0509
      5 C          58.9477   92.8706    1.1563 C.2     1  UNL1        0.0613
      6 C          58.9608   93.7128   -0.0849 C.2     1  UNL1        0.2246
      7 N          58.0609   93.7464   -1.2845 N.2     1  UNL1       -0.0378
      8 C          58.5702   94.8057   -2.2164 C.2     1  UNL1        0.3605
      9 N          59.7848   95.4268   -1.5927 N.2     1  UNL1       -0.0547
     10 C          60.0262   94.7514   -0.2753 C.3     1  UNL1        0.2976
     11 C          57.9703   95.1786   -3.5396 C.3     1  UNL1        0.2246
     12 C          56.5322   94.8631   -3.8267 C.2     1  UNL1        0.0436
     13 C          55.9323   95.2360   -5.1500 C.2     1  UNL1        0.0288
     14 C          56.7704   95.9243   -6.1862 C.2     1  UNL1        0.0896
     15 N          58.2085   96.2397   -5.8992 N.am    1  UNL1       -0.1770
     16 C          58.8084   95.8669   -4.5759 C.2     1  UNL1        0.2627
     17 O          60.2464   96.1823   -4.2889 O.2     1  UNL1       -0.2719
     18 N          55.6940   94.1748   -2.7905 N.pl3   1  UNL1       -0.3329
     19 H          55.1390   94.7055   -2.1745 H       1  UNL1        0.1466
     20 C          55.7015   92.6780   -2.6929 C.3     1  UNL1        0.1211
     21 C          56.4508   91.8642   -3.7059 C.3     1  UNL1        0.1522
     22 O          57.9283   91.6538   -3.5545 O.3     1  UNL1       -0.3783
     23 H          58.2393   92.1074   -2.7555 H       1  UNL1        0.2109
     24 C          55.7227   91.2606   -4.8702 C.ar    1  UNL1        0.0067
     25 C          55.9870   91.7590   -6.2601 C.ar    1  UNL1       -0.0018
     26 C          55.2589   91.1555   -7.4244 C.ar    1  UNL1        0.0006
     27 C          54.2665   90.0536   -7.1988 C.ar    1  UNL1        0.0114
     28 C          54.0022   89.5552   -5.8090 C.ar    1  UNL1        0.0574
     29 CL         53.0097   88.4534   -5.5834 Cl      1  UNL1       -0.0823
     30 C          54.7303   90.1588   -4.6446 C.ar    1  UNL1        0.0095
     31 N          59.9870   92.2249    3.4483 N.pl3   1  UNL1       -0.3073
     32 C          61.2624   91.6240    3.9605 C.3     1  UNL1        0.0922
     33 C          61.2493   90.7819    5.2017 C.3     1  UNL1        0.0374
     34 C          59.9608   90.5406    5.9307 C.3     1  UNL1        0.0610
     35 C          58.6854   91.1415    5.4186 C.3     1  UNL1        0.0374
     36 C          58.6985   91.9836    4.1774 C.3     1  UNL1        0.0922
     37 N          59.9476   89.6985    7.1719 N.3     1  UNL1       -0.2715
     38 C          60.5811   90.2097    8.4319 C.3     1  UNL1        0.0896
     39 C          60.5680   89.3676    9.6731 C.3     1  UNL1        0.0897
     40 N          59.9213   88.0143    9.6545 N.3     1  UNL1       -0.2691
     41 C          59.9081   87.1722   10.8957 C.3     1  UNL1        0.0897
     42 C          59.2878   87.5031    8.3946 C.3     1  UNL1        0.0897
     43 C          59.3009   88.3452    7.1533 C.3     1  UNL1        0.0896
@<TRIPOS>BOND
     1     1     2    1
     2     2     3    2
     3     3     4    1
     4     4    31    1
     5    31    32    1
     6    32    33    1
     7    33    34    1
     8    34    37    1
     9    37    38    1
    10    38    39    1
    11    39    40    1
    12    40    41    1
    13    40    42    1
    14    42    43    1
    15    34    35    1
    16    35    36    1
    17     4     5    2
    18     5     6    1
    19     6     7    2
    20     7     8    1
    21     8    11    1
    22    11    12    1
    23    12    18    1
    24    18    20    1
    25    20    21    1
    26    21    22    1
    27    21    24    1
    28    24    25   ar
    29    25    26   ar
    30    26    27   ar
    31    27    28   ar
    32    28    29    1
    33    28    30   ar
    34    12    13    2
    35    13    14    1
    36    14    15    2
    37    15    16    1
    38    16    17    2
    39     8     9    2
    40     9    10    1
    41    10     2    1
    42    36    31    1
    43    10     6    1
    44    43    37    1
    45    16    11    1
    46    30    24   ar
    47    18    19    1
    48    22    23    1
@<TRIPOS>MOLECULE
*****
 43 48 0 0 0
SMALL
GASTEIGER

@<TRIPOS>ATOM
      1 C          59.0671   89.0883   11.7299 C.3     1  UNL1        0.0312
      2 C          59.8316   88.7800   10.4767 C.2     1  UNL1        0.0136
      3 C          59.6201   89.6106    9.2457 C.2     1  UNL1        0.0107
      4 C          60.3845   89.3023    7.9926 C.2     1  UNL1        0.0509
      5 C          61.3605   88.1633    7.9703 C.2     1  UNL1        0.0613
      6 C          61.5720   87.3328    9.2014 C.2     1  UNL1        0.2246
      7 N          62.4602   86.1561    9.4778 N.2     1  UNL1       -0.0378
      8 C          62.2446   85.7372   10.9019 C.2     1  UNL1        0.3605
      9 N          61.2232   86.6550   11.5056 N.2     1  UNL1       -0.0547
     10 C          60.8075   87.6411   10.4546 C.3     1  UNL1        0.2976
     11 C          62.9302   84.6001   11.5999 C.3     1  UNL1        0.2246
     12 C          63.3224   84.7321   13.0416 C.2     1  UNL1        0.0436
     13 C          64.0079   83.5950   13.7395 C.2     1  UNL1        0.0288
     14 C          64.3012   82.3259   12.9957 C.2     1  UNL1        0.0896
     15 N          63.9090   82.1938   11.5539 N.am    1  UNL1       -0.1770
     16 C          63.2235   83.3310   10.8560 C.2     1  UNL1        0.2627
     17 O          62.8313   83.1989    9.4143 O.2     1  UNL1       -0.2719
     18 N          63.0291   86.0012   13.7855 N.pl3   1  UNL1       -0.3329
     19 H          62.0970   86.2850   13.9263 H       1  UNL1        0.1466
     20 C          64.1560   86.8378   14.3149 C.3     1  UNL1        0.1211
     21 C          63.8856   88.2199   14.8313 C.3     1  UNL1        0.1522
     22 O          63.3962   88.4133   16.2360 O.3     1  UNL1       -0.3783
     23 H          63.3088   87.5500   16.6697 H       1  UNL1        0.2109
     24 C          64.1045   89.4086   13.9430 C.ar    1  UNL1        0.0067
     25 C          65.0638   90.4858   14.3544 C.ar    1  UNL1       -0.0018
     26 C          65.2828   91.6745   13.4662 C.ar    1  UNL1        0.0006
     27 C          64.5424   91.7860   12.1664 C.ar    1  UNL1        0.0114
     28 C          63.5831   90.7088   11.7550 C.ar    1  UNL1        0.0574
     29 CL         62.8427   90.8203   10.4552 Cl      1  UNL1       -0.0823
     30 C          63.3641   89.5201   12.6433 C.ar    1  UNL1        0.0095
     31 N          60.1731   90.1329    6.7615 N.pl3   1  UNL1       -0.3073
     32 C          58.7883   90.5584    6.3726 C.3     1  UNL1        0.0922
     33 C          58.5768   91.3890    5.1416 C.3     1  UNL1        0.0374
     34 C          59.7501   91.7940    4.2994 C.3     1  UNL1        0.0610
     35 C          61.1349   91.3684    4.6883 C.3     1  UNL1        0.0374
     36 C          61.3464   90.5379    5.9193 C.3     1  UNL1        0.0922
     37 N          59.5388   92.6246    3.0684 N.3     1  UNL1       -0.2715
     38 C          60.1960   93.9676    2.9478 C.3     1  UNL1        0.0896
     39 C          59.9847   94.7982    1.7168 C.3     1  UNL1        0.0897
     40 N          59.1161   94.2859    0.6064 N.3     1  UNL1       -0.2691
     41 C          58.9047   95.1164   -0.6247 C.3     1  UNL1        0.0897
     42 C          58.4589   92.9429    0.7270 C.3     1  UNL1        0.0897
     43 C          58.6702   92.1122    1.9580 C.3     1  UNL1        0.0896
@<TRIPOS>BOND
     1     1     2    1
     2     2     3    2
     3     3     4    1
     4     4    31    1
     5    31    32    1
     6    32    33    1
     7    33    34    1
     8    34    37    1
     9    37    38    1
    10    38    39    1
    11    39    40    1
    12    40    41    1
    13    40    42    1
    14    42    43    1
    15    34    35    1
    16    35    36    1
    17     4     5    2
    18     5     6    1
    19     6     7    2
    20     7     8    1
    21     8    11    1
    22    11    12    1
    23    12    18    1
    24    18    20    1
    25    20    21    1
    26    21    22    1
    27    21    24    1
    28    24    25   ar
    29    25    26   ar
    30    26    27   ar
    31    27    28   ar
    32    28    29    1
    33    28    30   ar
    34    12    13    2
    35    13    14    1
    36    14    15    2
    37    15    16    1
    38    16    17    2
    39     8     9    2
    40     9    10    1
    41    10     2    1
    42    36    31    1
    43    10     6    1
    44    43    37    1
    45    16    11    1
    46    30    24   ar
    47    18    19    1
    48    22    23    1
