@<TRIPOS>MOLECULE
*****
 53 58 0 0 0
SMALL
GASTEIGER

@<TRIPOS>ATOM
      1 C          60.6019   89.4058   12.1164 C.3     1  UNL1        0.1269
      2 O          59.7224   90.6108   11.9605 O.3     1  UNL1       -0.3830
      3 H          59.9720   91.2803   12.6165 H       1  UNL1        0.2104
      4 C          60.4178   88.2211   11.2149 C.3     1  UNL1        0.0401
      5 C          61.5541   87.2692   10.9858 C.3     1  UNL1        0.0833
      6 O          60.9523   85.9290   13.1286 O.2     1  UNL1       -0.2751
      7 C          61.9339   86.2842   12.0514 C.2     1  UNL1        0.2226
      8 N          63.2953   85.6545   12.0399 N.am    1  UNL1       -0.2999
      9 H          63.9395   85.8877   11.3330 H       1  UNL1        0.1498
     10 C          63.6751   84.6695   13.1055 C.3     1  UNL1        0.1278
     11 C          63.3797   83.2109   12.9183 C.ar    1  UNL1        0.0320
     12 C          62.7045   82.7372   11.6654 C.ar    1  UNL1        0.0004
     13 C          62.4091   81.2786   11.4782 C.ar    1  UNL1       -0.0001
     14 C          62.7888   80.2936   12.5438 C.ar    1  UNL1        0.0031
     15 C          63.4640   80.7673   13.7966 C.ar    1  UNL1        0.0366
     16 C          63.7594   82.2259   13.9839 C.ar    1  UNL1        0.1362
     17 O          64.4347   82.6996   15.2368 O.3     1  UNL1       -0.4730
     18 C          64.7301   84.1582   15.4241 C.3     1  UNL1        0.2364
     19 C          64.3503   85.1432   14.3584 C.3     1  UNL1        0.1762
     20 O          64.6457   86.6019   14.5456 O.3     1  UNL1       -0.3788
     21 H          65.0807   86.7363   15.4021 H       1  UNL1        0.2106
     22 C          62.3108   87.3023    9.6910 C.3     1  UNL1        0.0356
     23 C          61.9411   86.3623    8.5821 C.ar    1  UNL1       -0.0186
     24 C          62.9782   85.4527    7.9929 C.ar    1  UNL1        0.0164
     25 C          62.6084   84.5127    6.8839 C.ar    1  UNL1        0.0986
     26 N          61.2017   84.4823    6.3642 N.ar    1  UNL1       -0.2423
     27 C          60.1647   85.3919    6.9534 C.ar    1  UNL1        0.0986
     28 C          60.5343   86.3319    8.0623 C.ar    1  UNL1        0.0164
     29 C          61.6655   89.3853   13.1740 C.3     1  UNL1        0.1021
     30 N          62.9042   90.2148   13.0079 N.3     1  UNL1       -0.2621
     31 C          63.2825   90.7349   11.6527 C.3     1  UNL1        0.0901
     32 C          64.5212   91.5645   11.4867 C.3     1  UNL1        0.0900
     33 N          65.3816   91.8739   12.6759 N.3     1  UNL1       -0.2657
     34 C          65.0033   91.3538   14.0310 C.3     1  UNL1        0.0980
     35 C          63.7646   90.5243   14.1970 C.3     1  UNL1        0.1510
     36 C          63.3863   90.0042   15.5521 C.2     1  UNL1        0.2386
     37 O          63.1865   90.9578   16.6926 O.2     1  UNL1       -0.2736
     38 N          63.2078   88.5303   15.7668 N.am    1  UNL1       -0.2961
     39 H          63.3389   87.9044   15.0183 H       1  UNL1        0.1497
     40 C          62.8295   88.0102   17.1219 C.3     1  UNL1        0.1939
     41 C          62.4284   86.5745   17.2891 C.3     1  UNL1        0.4154
     42 F          62.0272   85.1389   17.4563 F       1  UNL1       -0.1682
     43 F          63.8098   86.2447   17.7717 F       1  UNL1       -0.1682
     44 F          61.0470   86.9043   16.8065 F       1  UNL1       -0.1682
     45 C          66.6202   92.7034   12.5099 C.3     1  UNL1        0.1051
     46 C          66.7393   93.6502   11.3525 C.2     1  UNL1        0.0161
     47 C          67.4028   93.3584   10.0393 C.2     1  UNL1       -0.0171
     48 C          67.2893   94.5828    9.1803 C.3     1  UNL1        0.0654
     49 C          67.6293   95.1592    7.8378 C.2     1  UNL1       -0.0137
     50 C          67.1057   96.5640    7.7905 C.2     1  UNL1        0.0275
     51 S          66.4421   96.8559    9.1037 S.3     1  UNL1       -0.1023
     52 C          66.5556   95.6315    9.9627 C.3     1  UNL1        0.1109
     53 S          66.2157   95.0551   11.3052 S.3     1  UNL1       -0.1057
@<TRIPOS>BOND
     1     6     7    2
     2     7     8   am
     3    10     8    1
     4    10    11    1
     5    11    12   ar
     6    12    13   ar
     7    13    14   ar
     8    14    15   ar
     9    15    16   ar
    10    16    17    1
    11    17    18    1
    12    18    19    1
    13    19    20    1
    14     7     5    1
    15     5    22    1
    16    22    23    1
    17    23    24   ar
    18    24    25   ar
    19    25    26   ar
    20    26    27   ar
    21    27    28   ar
    22     5     4    1
    23     4     1    1
    24     1     2    1
    25     1    29    1
    26    29    30    1
    27    30    31    1
    28    31    32    1
    29    32    33    1
    30    33    45    1
    31    45    46    1
    32    46    47    2
    33    47    48    1
    34    48    49    1
    35    49    50    2
    36    50    51    1
    37    51    52    1
    38    52    53    1
    39    33    34    1
    40    34    35    1
    41    35    36    1
    42    36    37    2
    43    36    38   am
    44    38    40    1
    45    40    41    1
    46    41    42    1
    47    41    43    1
    48    41    44    1
    49    19    10    1
    50    28    23   ar
    51    35    30    1
    52    16    11   ar
    53    53    46    1
    54    52    48    1
    55     8     9    1
    56    20    21    1
    57     2     3    1
    58    38    39    1
@<TRIPOS>MOLECULE
*****
 53 58 0 0 0
SMALL
GASTEIGER

@<TRIPOS>ATOM
      1 C          62.5957   90.0780   13.0717 C.3     1  UNL1        0.1269
      2 O          61.1143   89.8556   13.1488 O.3     1  UNL1       -0.3830
      3 H          60.8914   89.0126   12.7239 H       1  UNL1        0.2104
      4 C          63.1995   91.3186   13.6603 C.3     1  UNL1        0.0401
      5 C          64.6644   91.5927   13.4910 C.3     1  UNL1        0.0833
      6 O          64.7344   91.9700   10.9214 O.2     1  UNL1       -0.2751
      7 C          65.1492   92.3732   12.3053 C.2     1  UNL1        0.2226
      8 N          66.0489   93.5570   12.5035 N.am    1  UNL1       -0.2999
      9 H          66.3212   93.8217   13.4118 H       1  UNL1        0.1498
     10 C          66.5337   94.3375   11.3179 C.3     1  UNL1        0.1278
     11 C          67.3187   93.6522   10.2389 C.ar    1  UNL1        0.0320
     12 C          67.6188   92.1865   10.3455 C.ar    1  UNL1        0.0004
     13 C          68.4038   91.5012    9.2665 C.ar    1  UNL1       -0.0001
     14 C          68.8886   92.2817    8.0809 C.ar    1  UNL1        0.0031
     15 C          68.5884   93.7475    7.9743 C.ar    1  UNL1        0.0366
     16 C          67.8035   94.4327    9.0533 C.ar    1  UNL1        0.1362
     17 O          67.5033   95.8986    8.9466 O.3     1  UNL1       -0.4730
     18 C          66.7183   96.5838   10.0256 C.3     1  UNL1        0.2364
     19 C          66.2335   95.8033   11.2113 C.3     1  UNL1        0.1762
     20 O          65.4485   96.4885   12.2902 O.3     1  UNL1       -0.3788
     21 H          65.3443   97.4269   12.0679 H       1  UNL1        0.2106
     22 C          65.6446   91.0865   14.5073 C.3     1  UNL1        0.0356
     23 C          66.9121   91.8446   14.7694 C.ar    1  UNL1       -0.0186
     24 C          68.1242   91.5950   13.9218 C.ar    1  UNL1        0.0164
     25 C          69.3918   92.3532   14.1840 C.ar    1  UNL1        0.0986
     26 N          69.4471   93.3608   15.2937 N.ar    1  UNL1       -0.2423
     27 C          68.2350   93.6103   16.1414 C.ar    1  UNL1        0.0986
     28 C          66.9675   92.8523   15.8792 C.ar    1  UNL1        0.0164
     29 C          63.4733   89.0598   12.4060 C.3     1  UNL1        0.1021
     30 N          63.4905   87.6447   12.9031 N.3     1  UNL1       -0.2621
     31 C          64.2598   87.2944   14.1423 C.3     1  UNL1        0.0901
     32 C          64.2769   85.8792   14.6394 C.3     1  UNL1        0.0900
     33 N          63.5248   84.8144   13.8973 N.3     1  UNL1       -0.2657
     34 C          62.7556   85.1648   12.6582 C.3     1  UNL1        0.0980
     35 C          62.7384   86.5799   12.1611 C.3     1  UNL1        0.1510
     36 C          61.9692   86.9303   10.9220 C.2     1  UNL1        0.2386
     37 O          60.8896   87.9701   10.9783 O.2     1  UNL1       -0.2736
     38 N          62.2796   86.2409    9.6264 N.am    1  UNL1       -0.2961
     39 H          62.9883   85.5585    9.5894 H       1  UNL1        0.1497
     40 C          61.5104   86.5913    8.3873 C.3     1  UNL1        0.1939
     41 C          61.2292   85.5386    7.3563 C.3     1  UNL1        0.4154
     42 F          60.9479   84.4860    6.3253 F       1  UNL1       -0.1682
     43 F          62.6774   85.1481    7.3598 F       1  UNL1       -0.1682
     44 F          59.7809   85.9291    7.3527 F       1  UNL1       -0.1682
     45 C          63.5420   83.3993   14.3944 C.3     1  UNL1        0.1051
     46 C          63.3241   82.2653   13.4369 C.2     1  UNL1        0.0161
     47 C          63.5471   82.3082   11.9542 C.2     1  UNL1       -0.0171
     48 C          63.2058   80.9589   11.3949 C.3     1  UNL1        0.0654
     49 C          63.1327   80.1514   10.1329 C.2     1  UNL1       -0.0137
     50 C          62.6536   78.7756   10.4900 C.2     1  UNL1        0.0275
     51 S          62.4306   78.7327   11.9728 S.3     1  UNL1       -0.1023
     52 C          62.7719   80.0820   12.5321 C.3     1  UNL1        0.1109
     53 S          62.8450   80.8895   13.7940 S.3     1  UNL1       -0.1057
@<TRIPOS>BOND
     1     6     7    2
     2     7     8   am
     3    10     8    1
     4    10    11    1
     5    11    12   ar
     6    12    13   ar
     7    13    14   ar
     8    14    15   ar
     9    15    16   ar
    10    16    17    1
    11    17    18    1
    12    18    19    1
    13    19    20    1
    14     7     5    1
    15     5    22    1
    16    22    23    1
    17    23    24   ar
    18    24    25   ar
    19    25    26   ar
    20    26    27   ar
    21    27    28   ar
    22     5     4    1
    23     4     1    1
    24     1     2    1
    25     1    29    1
    26    29    30    1
    27    30    31    1
    28    31    32    1
    29    32    33    1
    30    33    45    1
    31    45    46    1
    32    46    47    2
    33    47    48    1
    34    48    49    1
    35    49    50    2
    36    50    51    1
    37    51    52    1
    38    52    53    1
    39    33    34    1
    40    34    35    1
    41    35    36    1
    42    36    37    2
    43    36    38   am
    44    38    40    1
    45    40    41    1
    46    41    42    1
    47    41    43    1
    48    41    44    1
    49    19    10    1
    50    28    23   ar
    51    35    30    1
    52    16    11   ar
    53    53    46    1
    54    52    48    1
    55     8     9    1
    56    20    21    1
    57     2     3    1
    58    38    39    1
@<TRIPOS>MOLECULE
*****
 53 58 0 0 0
SMALL
GASTEIGER

@<TRIPOS>ATOM
      1 C          63.2813   90.0239   14.3072 C.3     1  UNL1        0.1269
      2 O          62.1835   89.6092   15.2415 O.3     1  UNL1       -0.3830
      3 H          61.9597   88.6786   15.0844 H       1  UNL1        0.2104
      4 C          63.8121   91.4262   14.3491 C.3     1  UNL1        0.0401
      5 C          65.2270   91.7053   13.9367 C.3     1  UNL1        0.0833
      6 O          64.8709   92.0505   11.3864 O.2     1  UNL1       -0.2751
      7 C          65.5038   92.4740   12.6787 C.2     1  UNL1        0.2226
      8 N          66.4136   93.6661   12.7130 N.am    1  UNL1       -0.2999
      9 H          66.8290   93.9440   13.5612 H       1  UNL1        0.1498
     10 C          66.6904   94.4348   11.4551 C.3     1  UNL1        0.1278
     11 C          67.3944   93.7700   10.3094 C.ar    1  UNL1        0.0320
     12 C          67.8215   92.3365   10.4218 C.ar    1  UNL1        0.0004
     13 C          68.5255   91.6717    9.2761 C.ar    1  UNL1       -0.0001
     14 C          68.8023   92.4403    8.0182 C.ar    1  UNL1        0.0031
     15 C          68.3752   93.8738    7.9059 C.ar    1  UNL1        0.0366
     16 C          67.6712   94.5386    9.0515 C.ar    1  UNL1        0.1362
     17 O          67.2441   95.9722    8.9391 O.3     1  UNL1       -0.4730
     18 C          66.5401   96.6370   10.0848 C.3     1  UNL1        0.2364
     19 C          66.2633   95.8682   11.3428 C.3     1  UNL1        0.1762
     20 O          65.5593   96.5330   12.4884 O.3     1  UNL1       -0.3788
     21 H          65.3546   97.4515   12.2530 H       1  UNL1        0.2106
     22 C          66.3651   91.2157   14.7822 C.3     1  UNL1        0.0356
     23 C          67.5754   92.0786   14.9833 C.ar    1  UNL1       -0.0186
     24 C          67.5341   93.2114   15.9657 C.ar    1  UNL1        0.0164
     25 C          68.7445   94.0743   16.1667 C.ar    1  UNL1        0.0986
     26 N          69.9962   93.8045   15.3853 N.ar    1  UNL1       -0.2423
     27 C          70.0375   92.6717   14.4029 C.ar    1  UNL1        0.0986
     28 C          68.8272   91.8087   14.2019 C.ar    1  UNL1        0.0164
     29 C          63.8484   89.0362   13.3309 C.3     1  UNL1        0.1021
     30 N          63.8063   87.5688   13.6387 N.3     1  UNL1       -0.2621
     31 C          64.6500   87.0102   14.7461 C.3     1  UNL1        0.0901
     32 C          64.6079   85.5427   15.0539 C.3     1  UNL1        0.0900
     33 N          63.7220   84.6338   14.2543 N.3     1  UNL1       -0.2657
     34 C          62.8784   85.1924   13.1470 C.3     1  UNL1        0.0980
     35 C          62.9205   86.6599   12.8392 C.3     1  UNL1        0.1510
     36 C          62.0768   87.2185   11.7319 C.2     1  UNL1        0.2386
     37 O          62.2175   86.6820   10.3382 O.2     1  UNL1       -0.2736
     38 N          61.0925   88.3135   12.0183 N.am    1  UNL1       -0.2961
     39 H          61.0002   88.6656   12.9330 H       1  UNL1        0.1497
     40 C          60.2488   88.8721   10.9109 C.3     1  UNL1        0.1939
     41 C          59.4611   90.1299   11.1296 C.3     1  UNL1        0.4154
     42 F          58.6735   91.3875   11.3481 F       1  UNL1       -0.1682
     43 F          58.7725   89.4950   12.3012 F       1  UNL1       -0.1682
     44 F          60.1497   90.7647    9.9579 F       1  UNL1       -0.1682
     45 C          63.6799   83.1663   14.5621 C.3     1  UNL1        0.1051
     46 C          63.4462   82.1754   13.4605 C.2     1  UNL1        0.0161
     47 C          62.9589   80.7669   13.6303 C.2     1  UNL1       -0.0171
     48 C          62.8702   80.1399   12.2705 C.3     1  UNL1        0.0654
     49 C          62.5143   78.8820   11.5351 C.2     1  UNL1       -0.0137
     50 C          62.7268   79.1255   10.0703 C.2     1  UNL1        0.0275
     51 S          63.2141   80.5340    9.9005 S.3     1  UNL1       -0.1023
     52 C          63.3028   81.1609   11.2603 C.3     1  UNL1        0.1109
     53 S          63.6587   82.4189   11.9957 S.3     1  UNL1       -0.1057
@<TRIPOS>BOND
     1     6     7    2
     2     7     8   am
     3    10     8    1
     4    10    11    1
     5    11    12   ar
     6    12    13   ar
     7    13    14   ar
     8    14    15   ar
     9    15    16   ar
    10    16    17    1
    11    17    18    1
    12    18    19    1
    13    19    20    1
    14     7     5    1
    15     5    22    1
    16    22    23    1
    17    23    24   ar
    18    24    25   ar
    19    25    26   ar
    20    26    27   ar
    21    27    28   ar
    22     5     4    1
    23     4     1    1
    24     1     2    1
    25     1    29    1
    26    29    30    1
    27    30    31    1
    28    31    32    1
    29    32    33    1
    30    33    45    1
    31    45    46    1
    32    46    47    2
    33    47    48    1
    34    48    49    1
    35    49    50    2
    36    50    51    1
    37    51    52    1
    38    52    53    1
    39    33    34    1
    40    34    35    1
    41    35    36    1
    42    36    37    2
    43    36    38   am
    44    38    40    1
    45    40    41    1
    46    41    42    1
    47    41    43    1
    48    41    44    1
    49    19    10    1
    50    28    23   ar
    51    35    30    1
    52    16    11   ar
    53    53    46    1
    54    52    48    1
    55     8     9    1
    56    20    21    1
    57     2     3    1
    58    38    39    1
@<TRIPOS>MOLECULE
*****
 53 58 0 0 0
SMALL
GASTEIGER

@<TRIPOS>ATOM
      1 C          62.4007   88.4518   12.2051 C.3     1  UNL1        0.1269
      2 O          61.6629   89.7007   12.5870 O.3     1  UNL1       -0.3830
      3 H          60.8582   89.7775   12.0509 H       1  UNL1        0.2104
      4 C          63.6868   88.1005   12.8926 C.3     1  UNL1        0.0401
      5 C          64.0306   88.7325   14.2088 C.3     1  UNL1        0.0833
      6 O          63.5144   91.2217   14.7447 O.2     1  UNL1       -0.2751
      7 C          64.4652   90.1672   14.2611 C.2     1  UNL1        0.2226
      8 N          65.8507   90.5473   13.8298 N.am    1  UNL1       -0.2999
      9 H          66.4747   89.8552   13.5125 H       1  UNL1        0.1498
     10 C          66.2854   91.9820   13.8822 C.3     1  UNL1        0.1278
     11 C          66.0369   92.8842   12.7098 C.ar    1  UNL1        0.0320
     12 C          65.3538   92.3517   11.4852 C.ar    1  UNL1        0.0004
     13 C          65.1053   93.2539   10.3129 C.ar    1  UNL1       -0.0001
     14 C          65.5399   94.6885   10.3652 C.ar    1  UNL1        0.0031
     15 C          66.2231   95.2210   11.5898 C.ar    1  UNL1        0.0366
     16 C          66.4716   94.3188   12.7621 C.ar    1  UNL1        0.1362
     17 O          67.1547   94.8514   13.9868 O.3     1  UNL1       -0.4730
     18 C          67.4032   93.9492   15.1591 C.3     1  UNL1        0.2364
     19 C          66.9685   92.5145   15.1068 C.3     1  UNL1        0.1762
     20 O          67.2170   91.6123   16.2791 O.3     1  UNL1       -0.3788
     21 H          67.6640   92.1103   16.9813 H       1  UNL1        0.2106
     22 C          63.9398   87.9298   15.4727 C.3     1  UNL1        0.0356
     23 C          63.9177   86.4313   15.4095 C.ar    1  UNL1       -0.0186
     24 C          64.9917   85.6962   14.6637 C.ar    1  UNL1        0.0164
     25 C          64.9696   84.1976   14.6006 C.ar    1  UNL1        0.0986
     26 N          63.8736   83.4343   15.2832 N.ar    1  UNL1       -0.2423
     27 C          62.7996   84.1694   16.0290 C.ar    1  UNL1        0.0986
     28 C          62.8217   85.6679   16.0922 C.ar    1  UNL1        0.0164
     29 C          61.8524   87.5541   11.1357 C.3     1  UNL1        0.1021
     30 N          61.0671   88.1360    9.9979 N.3     1  UNL1       -0.2621
     31 C          60.3956   89.4682   10.1540 C.3     1  UNL1        0.0901
     32 C          59.6103   90.0502    9.0162 C.3     1  UNL1        0.0900
     33 N          59.4965   89.2999    7.7222 N.3     1  UNL1       -0.2657
     34 C          60.1680   87.9678    7.5662 C.3     1  UNL1        0.0980
     35 C          60.9533   87.3858    8.7040 C.3     1  UNL1        0.1510
     36 C          61.6249   86.0537    8.5479 C.2     1  UNL1        0.2386
     37 O          61.3121   85.1905    7.3617 O.2     1  UNL1       -0.2736
     38 N          62.6092   85.5846    9.5781 N.am    1  UNL1       -0.2961
     39 H          62.8144   86.1511   10.3567 H       1  UNL1        0.1497
     40 C          63.2807   84.2525    9.4221 C.3     1  UNL1        0.1939
     41 C          63.8881   83.5745   10.6143 C.3     1  UNL1        0.4154
     42 F          64.4954   82.8965   11.8066 F       1  UNL1       -0.1682
     43 F          64.5322   82.5643    9.7118 F       1  UNL1       -0.1682
     44 F          63.2440   84.5846   11.5169 F       1  UNL1       -0.1682
     45 C          58.7112   89.8818    6.5844 C.3     1  UNL1        0.1051
     46 C          59.4059   90.6930    5.5310 C.2     1  UNL1        0.0161
     47 C          60.8485   90.5759    5.1367 C.2     1  UNL1       -0.0171
     48 C          61.1142   91.5741    4.0491 C.3     1  UNL1        0.0654
     49 C          62.1699   92.1186    3.1332 C.2     1  UNL1       -0.0137
     50 C          61.5441   93.1892    2.2893 C.2     1  UNL1        0.0275
     51 S          60.1016   93.3063    2.6836 S.3     1  UNL1       -0.1023
     52 C          59.8359   92.3081    3.7712 C.3     1  UNL1        0.1109
     53 S          58.7801   91.7635    4.6871 S.3     1  UNL1       -0.1057
@<TRIPOS>BOND
     1     6     7    2
     2     7     8   am
     3    10     8    1
     4    10    11    1
     5    11    12   ar
     6    12    13   ar
     7    13    14   ar
     8    14    15   ar
     9    15    16   ar
    10    16    17    1
    11    17    18    1
    12    18    19    1
    13    19    20    1
    14     7     5    1
    15     5    22    1
    16    22    23    1
    17    23    24   ar
    18    24    25   ar
    19    25    26   ar
    20    26    27   ar
    21    27    28   ar
    22     5     4    1
    23     4     1    1
    24     1     2    1
    25     1    29    1
    26    29    30    1
    27    30    31    1
    28    31    32    1
    29    32    33    1
    30    33    45    1
    31    45    46    1
    32    46    47    2
    33    47    48    1
    34    48    49    1
    35    49    50    2
    36    50    51    1
    37    51    52    1
    38    52    53    1
    39    33    34    1
    40    34    35    1
    41    35    36    1
    42    36    37    2
    43    36    38   am
    44    38    40    1
    45    40    41    1
    46    41    42    1
    47    41    43    1
    48    41    44    1
    49    19    10    1
    50    28    23   ar
    51    35    30    1
    52    16    11   ar
    53    53    46    1
    54    52    48    1
    55     8     9    1
    56    20    21    1
    57     2     3    1
    58    38    39    1
@<TRIPOS>MOLECULE
*****
 53 58 0 0 0
SMALL
GASTEIGER

@<TRIPOS>ATOM
      1 C          62.6396   88.5091   11.7647 C.3     1  UNL1        0.1269
      2 O          62.7912   89.9713   11.4664 O.3     1  UNL1       -0.3830
      3 H          62.1192   90.2409   10.8209 H       1  UNL1        0.2104
      4 C          63.5646   87.8426   12.7394 C.3     1  UNL1        0.0401
      5 C          63.9447   88.5418   14.0109 C.3     1  UNL1        0.0833
      6 O          63.5987   90.9810   14.8358 O.2     1  UNL1       -0.2751
      7 C          64.3340   89.9902   13.9829 C.2     1  UNL1        0.2226
      8 N          65.4587   90.4476   13.1021 N.am    1  UNL1       -0.2999
      9 H          65.9413   89.7972   12.5423 H       1  UNL1        0.1498
     10 C          65.8480   91.8959   13.0741 C.3     1  UNL1        0.1278
     11 C          66.7347   92.4550   14.1470 C.ar    1  UNL1        0.0320
     12 C          67.2321   91.5659   15.2478 C.ar    1  UNL1        0.0004
     13 C          68.1189   92.1250   16.3207 C.ar    1  UNL1       -0.0001
     14 C          68.5082   93.5733   16.2927 C.ar    1  UNL1        0.0031
     15 C          68.0108   94.4624   15.1918 C.ar    1  UNL1        0.0366
     16 C          67.1241   93.9033   14.1189 C.ar    1  UNL1        0.1362
     17 O          66.6267   94.7925   13.0180 O.3     1  UNL1       -0.4730
     18 C          65.7399   94.2334   11.9452 C.3     1  UNL1        0.2364
     19 C          65.3506   92.7850   11.9732 C.3     1  UNL1        0.1762
     20 O          64.4639   92.2258   10.9003 O.3     1  UNL1       -0.3788
     21 H          64.2347   92.9281   10.2717 H       1  UNL1        0.2106
     22 C          63.9354   87.7926   15.3104 C.3     1  UNL1        0.0356
     23 C          63.9103   86.2929   15.3113 C.ar    1  UNL1       -0.0186
     24 C          62.7818   85.5621   15.9764 C.ar    1  UNL1        0.0164
     25 C          62.7568   84.0622   15.9773 C.ar    1  UNL1        0.0986
     26 N          63.8602   83.2933   15.3132 N.ar    1  UNL1       -0.2423
     27 C          64.9887   84.0241   14.6481 C.ar    1  UNL1        0.0986
     28 C          65.0138   85.5238   14.6472 C.ar    1  UNL1        0.0164
     29 C          61.5629   87.7133   11.0882 C.3     1  UNL1        0.1021
     30 N          60.8399   88.2841    9.9043 N.3     1  UNL1       -0.2621
     31 C          60.2028   89.6390    9.9965 C.3     1  UNL1        0.0901
     32 C          59.4798   90.2099    8.8127 C.3     1  UNL1        0.0900
     33 N          59.3940   89.4258    7.5367 N.3     1  UNL1       -0.2657
     34 C          60.0311   88.0710    7.4446 C.3     1  UNL1        0.0980
     35 C          60.7541   87.5002    8.6284 C.3     1  UNL1        0.1510
     36 C          61.3913   86.1454    8.5363 C.2     1  UNL1        0.2386
     37 O          60.8176   85.1077    7.6175 O.2     1  UNL1       -0.2736
     38 N          62.6021   85.8282    9.3630 N.am    1  UNL1       -0.2961
     39 H          62.9786   86.5093    9.9661 H       1  UNL1        0.1497
     40 C          63.2392   84.4735    9.2709 C.3     1  UNL1        0.1939
     41 C          63.6504   83.7515   10.5199 C.3     1  UNL1        0.4154
     42 F          64.0615   83.0296   11.7688 F       1  UNL1       -0.1682
     43 F          62.9140   84.7631   11.3471 F       1  UNL1       -0.1682
     44 F          64.3868   82.7399    9.6927 F       1  UNL1       -0.1682
     45 C          58.6710   89.9967    6.3529 C.3     1  UNL1        0.1051
     46 C          59.4196   90.8060    5.3356 C.2     1  UNL1        0.0161
     47 C          60.8687   90.6527    4.9800 C.2     1  UNL1       -0.0171
     48 C          61.1953   91.6626    3.9200 C.3     1  UNL1        0.0654
     49 C          62.2927   92.1920    3.0451 C.2     1  UNL1       -0.0137
     50 C          61.7236   93.2966    2.2050 C.2     1  UNL1        0.0275
     51 S          60.2744   93.4499    2.5607 S.3     1  UNL1       -0.1023
     52 C          59.9479   92.4400    3.6206 C.3     1  UNL1        0.1109
     53 S          58.8505   91.9106    4.4955 S.3     1  UNL1       -0.1057
@<TRIPOS>BOND
     1     6     7    2
     2     7     8   am
     3    10     8    1
     4    10    11    1
     5    11    12   ar
     6    12    13   ar
     7    13    14   ar
     8    14    15   ar
     9    15    16   ar
    10    16    17    1
    11    17    18    1
    12    18    19    1
    13    19    20    1
    14     7     5    1
    15     5    22    1
    16    22    23    1
    17    23    24   ar
    18    24    25   ar
    19    25    26   ar
    20    26    27   ar
    21    27    28   ar
    22     5     4    1
    23     4     1    1
    24     1     2    1
    25     1    29    1
    26    29    30    1
    27    30    31    1
    28    31    32    1
    29    32    33    1
    30    33    45    1
    31    45    46    1
    32    46    47    2
    33    47    48    1
    34    48    49    1
    35    49    50    2
    36    50    51    1
    37    51    52    1
    38    52    53    1
    39    33    34    1
    40    34    35    1
    41    35    36    1
    42    36    37    2
    43    36    38   am
    44    38    40    1
    45    40    41    1
    46    41    42    1
    47    41    43    1
    48    41    44    1
    49    19    10    1
    50    28    23   ar
    51    35    30    1
    52    16    11   ar
    53    53    46    1
    54    52    48    1
    55     8     9    1
    56    20    21    1
    57     2     3    1
    58    38    39    1
@<TRIPOS>MOLECULE
*****
 53 58 0 0 0
SMALL
GASTEIGER

@<TRIPOS>ATOM
      1 C          62.9909   87.5757   12.5898 C.3     1  UNL1        0.1269
      2 O          63.4681   86.5413   13.5655 O.3     1  UNL1       -0.3830
      3 H          63.3878   86.8869   14.4683 H       1  UNL1        0.2104
      4 C          63.0125   87.2852   11.1183 C.3     1  UNL1        0.0401
      5 C          62.4864   85.9780   10.6041 C.3     1  UNL1        0.0833
      6 O          61.4175   84.8178   12.6685 O.2     1  UNL1       -0.2751
      7 C          62.3855   84.7965   11.5229 C.2     1  UNL1        0.2226
      8 N          63.2528   83.5938   11.2960 N.am    1  UNL1       -0.2999
      9 H          63.8881   83.5799   10.5440 H       1  UNL1        0.1498
     10 C          63.1520   82.4124   12.2146 C.3     1  UNL1        0.1278
     11 C          62.9608   81.0365   11.6488 C.ar    1  UNL1        0.0320
     12 C          62.8705   80.8419   10.1642 C.ar    1  UNL1        0.0004
     13 C          62.6794   79.4660    9.5983 C.ar    1  UNL1       -0.0001
     14 C          62.5786   78.2845   10.5170 C.ar    1  UNL1        0.0031
     15 C          62.6689   78.4791   12.0016 C.ar    1  UNL1        0.0366
     16 C          62.8600   79.8550   12.5674 C.ar    1  UNL1        0.1362
     17 O          62.9504   80.0495   14.0521 O.3     1  UNL1       -0.4730
     18 C          63.1415   81.4255   14.6180 C.3     1  UNL1        0.2364
     19 C          63.2423   82.6069   13.6992 C.3     1  UNL1        0.1762
     20 O          63.4334   83.9829   14.2651 O.3     1  UNL1       -0.3788
     21 H          63.4709   83.9321   15.2330 H       1  UNL1        0.2106
     22 C          62.0611   85.8522    9.1712 C.3     1  UNL1        0.0356
     23 C          60.9896   86.7488    8.6254 C.ar    1  UNL1       -0.0186
     24 C          61.0176   88.2185    8.9236 C.ar    1  UNL1        0.0164
     25 C          59.9460   89.1151    8.3777 C.ar    1  UNL1        0.0986
     26 N          58.8465   88.5419    7.5337 N.ar    1  UNL1       -0.2423
     27 C          58.8185   87.0721    7.2354 C.ar    1  UNL1        0.0986
     28 C          59.8900   86.1756    7.7812 C.ar    1  UNL1        0.0164
     29 C          62.4920   88.9007   13.0854 C.3     1  UNL1        0.1021
     30 N          63.3904   90.1013   13.0497 N.3     1  UNL1       -0.2621
     31 C          63.7225   90.7508   11.7390 C.3     1  UNL1        0.0901
     32 C          64.6209   91.9515   11.7032 C.3     1  UNL1        0.0900
     33 N          65.1872   92.5027   12.9782 N.3     1  UNL1       -0.2657
     34 C          64.8551   91.8532   14.2889 C.3     1  UNL1        0.0980
     35 C          63.9567   90.6526   14.3246 C.3     1  UNL1        0.1510
     36 C          63.6246   90.0031   15.6353 C.2     1  UNL1        0.2386
     37 O          63.4056   90.8466   16.8561 O.2     1  UNL1       -0.2736
     38 N          63.5115   88.5100   15.7251 N.am    1  UNL1       -0.2961
     39 H          63.6552   87.9564   14.9239 H       1  UNL1        0.1497
     40 C          63.1794   87.8606   17.0358 C.3     1  UNL1        0.1939
     41 C          62.7802   86.4152   17.0768 C.3     1  UNL1        0.4154
     42 F          62.3810   84.9699   17.1178 F       1  UNL1       -0.1682
     43 F          61.3860   86.8112   17.4632 F       1  UNL1       -0.1682
     44 F          64.1744   86.0192   16.6904 F       1  UNL1       -0.1682
     45 C          66.0856   93.7033   12.9425 C.3     1  UNL1        0.1051
     46 C          66.4582   94.3224   11.6279 C.2     1  UNL1        0.0161
     47 C          67.3187   93.6962   10.5708 C.2     1  UNL1       -0.0171
     48 C          67.4280   94.6631    9.4292 C.3     1  UNL1        0.0654
     49 C          68.0274   94.8737    8.0704 C.2     1  UNL1       -0.0137
     50 C          67.6048   96.2275    7.5822 C.2     1  UNL1        0.0275
     51 S          66.7443   96.8537    8.6392 S.3     1  UNL1       -0.1023
     52 C          66.6350   95.8869    9.7808 C.3     1  UNL1        0.1109
     53 S          66.0356   95.6763   11.1396 S.3     1  UNL1       -0.1057
@<TRIPOS>BOND
     1     6     7    2
     2     7     8   am
     3    10     8    1
     4    10    11    1
     5    11    12   ar
     6    12    13   ar
     7    13    14   ar
     8    14    15   ar
     9    15    16   ar
    10    16    17    1
    11    17    18    1
    12    18    19    1
    13    19    20    1
    14     7     5    1
    15     5    22    1
    16    22    23    1
    17    23    24   ar
    18    24    25   ar
    19    25    26   ar
    20    26    27   ar
    21    27    28   ar
    22     5     4    1
    23     4     1    1
    24     1     2    1
    25     1    29    1
    26    29    30    1
    27    30    31    1
    28    31    32    1
    29    32    33    1
    30    33    45    1
    31    45    46    1
    32    46    47    2
    33    47    48    1
    34    48    49    1
    35    49    50    2
    36    50    51    1
    37    51    52    1
    38    52    53    1
    39    33    34    1
    40    34    35    1
    41    35    36    1
    42    36    37    2
    43    36    38   am
    44    38    40    1
    45    40    41    1
    46    41    42    1
    47    41    43    1
    48    41    44    1
    49    19    10    1
    50    28    23   ar
    51    35    30    1
    52    16    11   ar
    53    53    46    1
    54    52    48    1
    55     8     9    1
    56    20    21    1
    57     2     3    1
    58    38    39    1
@<TRIPOS>MOLECULE
*****
 53 58 0 0 0
SMALL
GASTEIGER

@<TRIPOS>ATOM
      1 C          60.1943   88.9957   10.1412 C.3     1  UNL1        0.1269
      2 O          59.7558   89.7760    8.9376 O.3     1  UNL1       -0.3830
      3 H          59.8477   90.7249    9.1163 H       1  UNL1        0.2104
      4 C          60.1487   87.4965   10.1206 C.3     1  UNL1        0.0401
      5 C          61.4226   86.7066   10.1758 C.3     1  UNL1        0.0833
      6 O          61.1194   86.3293   12.7284 O.2     1  UNL1       -0.2751
      7 C          61.8119   85.9986   11.4397 C.2     1  UNL1        0.2226
      8 N          62.8937   84.9598   11.4146 N.am    1  UNL1       -0.2999
      9 H          63.3483   84.7427   10.5688 H       1  UNL1        0.1498
     10 C          63.2830   84.2518   12.6784 C.3     1  UNL1        0.1278
     11 C          63.1446   82.7614   12.7763 C.ar    1  UNL1        0.0320
     12 C          62.6169   81.9790   11.6104 C.ar    1  UNL1        0.0004
     13 C          62.4785   80.4887   11.7082 C.ar    1  UNL1       -0.0001
     14 C          62.8678   79.7806   12.9720 C.ar    1  UNL1        0.0031
     15 C          63.3955   80.5630   14.1379 C.ar    1  UNL1        0.0366
     16 C          63.5339   82.0534   14.0400 C.ar    1  UNL1        0.1362
     17 O          64.0617   82.8358   15.2060 O.3     1  UNL1       -0.4730
     18 C          64.2001   84.3262   15.1081 C.3     1  UNL1        0.2364
     19 C          63.8108   85.0342   13.8443 C.3     1  UNL1        0.1762
     20 O          63.9492   86.5246   13.7464 O.3     1  UNL1       -0.3788
     21 H          64.3018   86.8720   14.5806 H       1  UNL1        0.2106
     22 C          62.3073   86.6246    8.9673 C.3     1  UNL1        0.0356
     23 C          61.9264   85.7398    7.8175 C.ar    1  UNL1       -0.0186
     24 C          62.9875   85.0059    7.0523 C.ar    1  UNL1        0.0164
     25 C          62.6065   84.1210    5.9025 C.ar    1  UNL1        0.0986
     26 N          61.1645   83.9700    5.5181 N.ar    1  UNL1       -0.2423
     27 C          60.1034   84.7039    6.2833 C.ar    1  UNL1        0.0986
     28 C          60.4844   85.5888    7.4330 C.ar    1  UNL1        0.0164
     29 C          60.6784   89.7145   11.3655 C.3     1  UNL1        0.1021
     30 N          61.9957   90.4316   11.3425 N.3     1  UNL1       -0.2621
     31 C          62.5069   91.0201   10.0609 C.3     1  UNL1        0.0901
     32 C          63.8242   91.7373   10.0379 C.3     1  UNL1        0.0900
     33 N          64.6302   91.8659   11.2964 N.3     1  UNL1       -0.2657
     34 C          64.1190   91.2774   12.5779 C.3     1  UNL1        0.0980
     35 C          62.8017   90.5603   12.6010 C.3     1  UNL1        0.1510
     36 C          62.2904   89.9718   13.8824 C.2     1  UNL1        0.2386
     37 O          60.8500   89.5707   14.0015 O.2     1  UNL1       -0.2736
     38 N          63.2197   89.7843   15.0450 N.am    1  UNL1       -0.2961
     39 H          64.1651   90.0475   14.9669 H       1  UNL1        0.1497
     40 C          62.7084   89.1958   16.3265 C.3     1  UNL1        0.1939
     41 C          63.1407   87.8220   16.7459 C.3     1  UNL1        0.4154
     42 F          63.5729   86.4482   17.1653 F       1  UNL1       -0.1682
     43 F          61.9675   87.7371   17.6768 F       1  UNL1       -0.1682
     44 F          64.3138   87.9069   15.8151 F       1  UNL1       -0.1682
     45 C          65.9475   92.5830   11.2734 C.3     1  UNL1        0.1051
     46 C          66.7742   92.6733   12.5218 C.2     1  UNL1        0.0161
     47 C          67.9554   91.8134   12.8613 C.2     1  UNL1       -0.0171
     48 C          68.4761   92.2480   14.1992 C.3     1  UNL1        0.0654
     49 C          69.5278   91.9852   15.2358 C.2     1  UNL1       -0.0137
     50 C          69.3184   92.9513   16.3639 C.2     1  UNL1        0.0275
     51 S          68.1372   93.8113   16.0245 S.3     1  UNL1       -0.1023
     52 C          67.6166   93.3766   14.6866 C.3     1  UNL1        0.1109
     53 S          66.5648   93.6395   13.6500 S.3     1  UNL1       -0.1057
@<TRIPOS>BOND
     1     6     7    2
     2     7     8   am
     3    10     8    1
     4    10    11    1
     5    11    12   ar
     6    12    13   ar
     7    13    14   ar
     8    14    15   ar
     9    15    16   ar
    10    16    17    1
    11    17    18    1
    12    18    19    1
    13    19    20    1
    14     7     5    1
    15     5    22    1
    16    22    23    1
    17    23    24   ar
    18    24    25   ar
    19    25    26   ar
    20    26    27   ar
    21    27    28   ar
    22     5     4    1
    23     4     1    1
    24     1     2    1
    25     1    29    1
    26    29    30    1
    27    30    31    1
    28    31    32    1
    29    32    33    1
    30    33    45    1
    31    45    46    1
    32    46    47    2
    33    47    48    1
    34    48    49    1
    35    49    50    2
    36    50    51    1
    37    51    52    1
    38    52    53    1
    39    33    34    1
    40    34    35    1
    41    35    36    1
    42    36    37    2
    43    36    38   am
    44    38    40    1
    45    40    41    1
    46    41    42    1
    47    41    43    1
    48    41    44    1
    49    19    10    1
    50    28    23   ar
    51    35    30    1
    52    16    11   ar
    53    53    46    1
    54    52    48    1
    55     8     9    1
    56    20    21    1
    57     2     3    1
    58    38    39    1
@<TRIPOS>MOLECULE
*****
 53 58 0 0 0
SMALL
GASTEIGER

@<TRIPOS>ATOM
      1 C          59.7127   93.4825    1.4218 C.3     1  UNL1        0.1269
      2 O          59.7610   92.1446    0.7454 O.3     1  UNL1       -0.3830
      3 H          60.0668   91.4742    1.3762 H       1  UNL1        0.2104
      4 C          59.2690   94.6941    0.6569 C.3     1  UNL1        0.0401
      5 C          58.8858   94.5701   -0.7880 C.3     1  UNL1        0.0833
      6 O          60.6752   93.1034   -1.9699 O.2     1  UNL1       -0.2751
      7 C          59.9481   94.4084   -1.8346 C.2     1  UNL1        0.2226
      8 N          60.2834   95.5517   -2.7458 N.am    1  UNL1       -0.2999
      9 H          59.8062   96.4083   -2.6570 H       1  UNL1        0.1498
     10 C          61.3457   95.3901   -3.7924 C.3     1  UNL1        0.1278
     11 C          62.7526   95.8249   -3.5064 C.ar    1  UNL1        0.0320
     12 C          63.0971   96.4212   -2.1739 C.ar    1  UNL1        0.0004
     13 C          64.5039   96.8559   -1.8880 C.ar    1  UNL1       -0.0001
     14 C          65.5663   96.6943   -2.9345 C.ar    1  UNL1        0.0031
     15 C          65.2217   96.0980   -4.2670 C.ar    1  UNL1        0.0366
     16 C          63.8149   95.6632   -4.5530 C.ar    1  UNL1        0.1362
     17 O          63.4704   95.0668   -5.8856 O.3     1  UNL1       -0.4730
     18 C          62.0635   94.6321   -6.1715 C.3     1  UNL1        0.2364
     19 C          61.0012   94.7938   -5.1249 C.3     1  UNL1        0.1762
     20 O          59.5943   94.3590   -5.4108 O.3     1  UNL1       -0.3788
     21 H          59.5437   93.9985   -6.3099 H       1  UNL1        0.2106
     22 C          57.4401   94.6077   -1.1863 C.3     1  UNL1        0.0356
     23 C          56.9758   93.8531   -2.3967 C.ar    1  UNL1       -0.0186
     24 C          56.4777   94.5980   -3.5996 C.ar    1  UNL1        0.0164
     25 C          56.0134   93.8433   -4.8099 C.ar    1  UNL1        0.0986
     26 N          56.0471   92.3438   -4.8173 N.ar    1  UNL1       -0.2423
     27 C          56.5452   91.5988   -3.6144 C.ar    1  UNL1        0.0986
     28 C          57.0095   92.3534   -2.4041 C.ar    1  UNL1        0.0164
     29 C          60.1081   93.6089    2.8633 C.3     1  UNL1        0.1021
     30 N          59.8457   92.4793    3.8147 N.3     1  UNL1       -0.2621
     31 C          58.4942   92.3309    4.4484 C.3     1  UNL1        0.0901
     32 C          58.2319   91.2013    5.3998 C.3     1  UNL1        0.0900
     33 N          59.3211   90.2200    5.7175 N.3     1  UNL1       -0.2657
     34 C          60.6725   90.3684    5.0839 C.3     1  UNL1        0.0980
     35 C          60.9348   91.4980    4.1325 C.3     1  UNL1        0.1510
     36 C          62.2863   91.6464    3.4989 C.2     1  UNL1        0.2386
     37 O          63.3648   90.6453    3.7893 O.2     1  UNL1       -0.2736
     38 N          62.5592   92.7960    2.5747 N.am    1  UNL1       -0.2961
     39 H          61.8513   93.4531    2.3840 H       1  UNL1        0.1497
     40 C          63.9106   92.9444    1.9411 C.3     1  UNL1        0.1939
     41 C          64.0230   93.3226    0.4938 C.3     1  UNL1        0.4154
     42 F          64.1355   93.7008   -0.9533 F       1  UNL1       -0.1682
     43 F          62.6087   93.8216    0.5143 F       1  UNL1       -0.1682
     44 F          65.4374   92.8236    0.4733 F       1  UNL1       -0.1682
     45 C          59.0587   89.0904    6.6689 C.3     1  UNL1        0.1051
     46 C          59.9226   88.9163    7.8828 C.2     1  UNL1        0.0161
     47 C          60.4954   90.0191    8.7230 C.2     1  UNL1       -0.0171
     48 C          61.2922   89.3932    9.8290 C.3     1  UNL1        0.0654
     49 C          62.1386   89.6879   11.0318 C.2     1  UNL1       -0.0137
     50 C          62.5814   88.3804   11.6186 C.2     1  UNL1        0.0275
     51 S          62.0086   87.2776   10.7784 S.3     1  UNL1       -0.1023
     52 C          61.2119   87.9035    9.6724 C.3     1  UNL1        0.1109
     53 S          60.3655   87.6088    8.4696 S.3     1  UNL1       -0.1057
@<TRIPOS>BOND
     1     6     7    2
     2     7     8   am
     3    10     8    1
     4    10    11    1
     5    11    12   ar
     6    12    13   ar
     7    13    14   ar
     8    14    15   ar
     9    15    16   ar
    10    16    17    1
    11    17    18    1
    12    18    19    1
    13    19    20    1
    14     7     5    1
    15     5    22    1
    16    22    23    1
    17    23    24   ar
    18    24    25   ar
    19    25    26   ar
    20    26    27   ar
    21    27    28   ar
    22     5     4    1
    23     4     1    1
    24     1     2    1
    25     1    29    1
    26    29    30    1
    27    30    31    1
    28    31    32    1
    29    32    33    1
    30    33    45    1
    31    45    46    1
    32    46    47    2
    33    47    48    1
    34    48    49    1
    35    49    50    2
    36    50    51    1
    37    51    52    1
    38    52    53    1
    39    33    34    1
    40    34    35    1
    41    35    36    1
    42    36    37    2
    43    36    38   am
    44    38    40    1
    45    40    41    1
    46    41    42    1
    47    41    43    1
    48    41    44    1
    49    19    10    1
    50    28    23   ar
    51    35    30    1
    52    16    11   ar
    53    53    46    1
    54    52    48    1
    55     8     9    1
    56    20    21    1
    57     2     3    1
    58    38    39    1
@<TRIPOS>MOLECULE
*****
 53 58 0 0 0
SMALL
GASTEIGER

@<TRIPOS>ATOM
      1 C          59.7521   93.7148    1.5134 C.3     1  UNL1        0.1269
      2 O          59.5340   92.4222    0.7843 O.3     1  UNL1       -0.3830
      3 H          59.7869   91.6813    1.3570 H       1  UNL1        0.2104
      4 C          59.4353   95.0178    0.8413 C.3     1  UNL1        0.0401
      5 C          58.9857   95.0337   -0.5896 C.3     1  UNL1        0.0833
      6 O          60.3803   96.4488   -2.2638 O.2     1  UNL1       -0.2751
      7 C          59.9984   95.1152   -1.6932 C.2     1  UNL1        0.2226
      8 N          60.6293   93.8630   -2.2261 N.am    1  UNL1       -0.2999
      9 H          60.3787   92.9877   -1.8515 H       1  UNL1        0.1498
     10 C          61.6420   93.9444   -3.3296 C.3     1  UNL1        0.1278
     11 C          61.1962   94.1950   -4.7397 C.ar    1  UNL1        0.0320
     12 C          59.7377   94.3642   -5.0463 C.ar    1  UNL1        0.0004
     13 C          59.2919   94.6148   -6.4564 C.ar    1  UNL1       -0.0001
     14 C          60.3046   94.6962   -7.5599 C.ar    1  UNL1        0.0031
     15 C          61.7631   94.5270   -7.2533 C.ar    1  UNL1        0.0366
     16 C          62.2089   94.2764   -5.8432 C.ar    1  UNL1        0.1362
     17 O          63.6675   94.1072   -5.5366 O.3     1  UNL1       -0.4730
     18 C          64.1133   93.8566   -4.1265 C.3     1  UNL1        0.2364
     19 C          63.1005   93.7752   -3.0229 C.3     1  UNL1        0.1762
     20 O          63.5463   93.5246   -1.6128 O.3     1  UNL1       -0.3788
     21 H          64.5123   93.4396   -1.5894 H       1  UNL1        0.2106
     22 C          57.5233   94.9682   -0.9171 C.3     1  UNL1        0.0356
     23 C          57.0244   93.9771   -1.9264 C.ar    1  UNL1       -0.0186
     24 C          56.6646   94.4320   -3.3097 C.ar    1  UNL1        0.0164
     25 C          56.1657   93.4408   -4.3191 C.ar    1  UNL1        0.0986
     26 N          56.0267   91.9949   -3.9451 N.ar    1  UNL1       -0.2423
     27 C          56.3865   91.5400   -2.5618 C.ar    1  UNL1        0.0986
     28 C          56.8854   92.5311   -1.5525 C.ar    1  UNL1        0.0164
     29 C          60.2871   93.7044    2.9148 C.3     1  UNL1        0.1021
     30 N          59.9753   92.5561    3.8281 N.3     1  UNL1       -0.2621
     31 C          58.6244   92.4557    4.4725 C.3     1  UNL1        0.0901
     32 C          58.3126   91.3074    5.3858 C.3     1  UNL1        0.0900
     33 N          59.3517   90.2594    5.6547 N.3     1  UNL1       -0.2657
     34 C          60.7025   90.3599    5.0104 C.3     1  UNL1        0.0980
     35 C          61.0143   91.5082    4.0971 C.3     1  UNL1        0.1510
     36 C          62.3651   91.6086    3.4527 C.2     1  UNL1        0.2386
     37 O          63.3935   90.5443    3.6969 O.2     1  UNL1       -0.2736
     38 N          62.6875   92.7733    2.5641 N.am    1  UNL1       -0.2961
     39 H          62.0125   93.4718    2.4038 H       1  UNL1        0.1497
     40 C          64.0383   92.8737    1.9198 C.3     1  UNL1        0.1939
     41 C          64.5319   94.1972    1.4149 C.3     1  UNL1        0.4154
     42 F          65.0256   95.5206    0.9101 F       1  UNL1       -0.1682
     43 F          63.2840   94.8565    1.9227 F       1  UNL1       -0.1682
     44 F          65.7799   93.5379    0.9071 F       1  UNL1       -0.1682
     45 C          59.0399   89.1111    6.5680 C.3     1  UNL1        0.1051
     46 C          59.8902   88.8634    7.7787 C.2     1  UNL1        0.0161
     47 C          60.5244   89.9145    8.6407 C.2     1  UNL1       -0.0171
     48 C          61.2817   89.2220    9.7347 C.3     1  UNL1        0.0654
     49 C          62.1417   89.4435   10.9435 C.2     1  UNL1       -0.0137
     50 C          62.5071   88.1013   11.5047 C.2     1  UNL1        0.0275
     51 S          61.8729   87.0502   10.6427 S.3     1  UNL1       -0.1023
     52 C          61.1156   87.7428    9.5488 C.3     1  UNL1        0.1109
     53 S          60.2556   87.5212    8.3399 S.3     1  UNL1       -0.1057
@<TRIPOS>BOND
     1     6     7    2
     2     7     8   am
     3    10     8    1
     4    10    11    1
     5    11    12   ar
     6    12    13   ar
     7    13    14   ar
     8    14    15   ar
     9    15    16   ar
    10    16    17    1
    11    17    18    1
    12    18    19    1
    13    19    20    1
    14     7     5    1
    15     5    22    1
    16    22    23    1
    17    23    24   ar
    18    24    25   ar
    19    25    26   ar
    20    26    27   ar
    21    27    28   ar
    22     5     4    1
    23     4     1    1
    24     1     2    1
    25     1    29    1
    26    29    30    1
    27    30    31    1
    28    31    32    1
    29    32    33    1
    30    33    45    1
    31    45    46    1
    32    46    47    2
    33    47    48    1
    34    48    49    1
    35    49    50    2
    36    50    51    1
    37    51    52    1
    38    52    53    1
    39    33    34    1
    40    34    35    1
    41    35    36    1
    42    36    37    2
    43    36    38   am
    44    38    40    1
    45    40    41    1
    46    41    42    1
    47    41    43    1
    48    41    44    1
    49    19    10    1
    50    28    23   ar
    51    35    30    1
    52    16    11   ar
    53    53    46    1
    54    52    48    1
    55     8     9    1
    56    20    21    1
    57     2     3    1
    58    38    39    1
