@<TRIPOS>MOLECULE
*****
 23 23 0 0 0
SMALL
GASTEIGER

@<TRIPOS>ATOM
      1 C          63.0095   85.4421    9.0453 C.3     1  UNL1        0.0693
      2 C          61.7147   85.6259    8.3105 C.2     1  UNL1        0.1534
      3 O          61.5925   85.1807    6.8834 O.2     1  UNL1       -0.2960
      4 C          60.5422   86.2550    9.0030 C.3     1  UNL1        0.0937
      5 C          59.5930   87.1233    8.2315 C.3     1  UNL1        0.1179
      6 O          58.4200   86.5098    7.5259 O.3     1  UNL1       -0.3840
      7 H          58.4226   85.5503    7.6685 H       1  UNL1        0.2104
      8 C          59.8168   88.6050    8.1656 C.3     1  UNL1        0.0297
      9 C          60.1782   89.3649    9.4074 C.3     1  UNL1        0.0025
     10 C          61.6155   89.4904    9.8182 C.3     1  UNL1        0.0001
     11 C          62.8457   88.2516   11.7422 C.3     1  UNL1        0.0000
     12 C          61.9930   89.3903   11.2664 C.3     1  UNL1        0.0000
     13 C          63.4715   84.0645    9.4177 C.3     1  UNL1        0.0342
     14 C          63.2370   83.5442   10.8049 C.ar    1  UNL1       -0.0185
     15 C          63.2209   82.0659   11.0587 C.ar    1  UNL1       -0.0009
     16 C          62.9864   81.5457   12.4459 C.ar    1  UNL1        0.0395
     17 C          62.7681   82.5036   13.5793 C.ar    1  UNL1        0.1677
     18 O          62.5336   81.9833   14.9665 O.3     1  UNL1       -0.5029
     19 C          62.7842   83.9819   13.3255 C.ar    1  UNL1        0.1718
     20 C          63.0187   84.5022   11.9383 C.ar    1  UNL1        0.0358
     21 H          62.5235   81.0599   15.1250 H       1  UNL1        0.2923
     22 O          62.5658   84.9399   14.4589 O.3     1  UNL1       -0.4684
     23 C          63.7063   85.3061   15.3617 C.3     1  UNL1        0.2526
@<TRIPOS>BOND
     1    11    12    1
     2    12    10    1
     3    10     9    1
     4     9     8    1
     5     8     5    1
     6     5     6    1
     7     5     4    1
     8     4     2    1
     9     2     3    2
    10     2     1    1
    11     1    13    1
    12    13    14    1
    13    14    15   ar
    14    15    16   ar
    15    16    17   ar
    16    17    18    1
    17    17    19   ar
    18    19    22    1
    19    22    23    1
    20    19    20   ar
    21    20    14   ar
    22     6     7    1
    23    18    21    1
@<TRIPOS>MOLECULE
*****
 23 23 0 0 0
SMALL
GASTEIGER

@<TRIPOS>ATOM
      1 C          64.3943   85.5584   15.3285 C.3     1  UNL1        0.0693
      2 C          63.8418   84.2406   14.8721 C.2     1  UNL1        0.1534
      3 O          62.7177   83.5964   15.6278 O.2     1  UNL1       -0.2960
      4 C          64.4135   83.5671   13.6598 C.3     1  UNL1        0.0937
      5 C          63.8239   82.2777   13.1700 C.3     1  UNL1        0.1179
      6 O          63.6546   81.1242   14.1138 O.3     1  UNL1       -0.3840
      7 H          63.9737   81.3772   14.9942 H       1  UNL1        0.2104
      8 C          63.4035   82.1419   11.7366 C.3     1  UNL1        0.0297
      9 C          64.0830   82.9557   10.6754 C.3     1  UNL1        0.0025
     10 C          63.4632   84.2366   10.2007 C.3     1  UNL1        0.0001
     11 C          62.3280   86.2805   11.3335 C.3     1  UNL1        0.0000
     12 C          62.3059   84.8314   10.9468 C.3     1  UNL1        0.0000
     13 C          64.3469   86.7480   14.4161 C.3     1  UNL1        0.0342
     14 C          64.1092   88.1172   14.9807 C.ar    1  UNL1       -0.0185
     15 C          63.4088   88.2743   16.2977 C.ar    1  UNL1       -0.0009
     16 C          63.1712   89.6435   16.8623 C.ar    1  UNL1        0.0395
     17 C          63.6340   90.8557   16.1098 C.ar    1  UNL1        0.1677
     18 O          63.3964   92.2249   16.6744 O.3     1  UNL1       -0.5029
     19 C          64.3345   90.6987   14.7928 C.ar    1  UNL1        0.1718
     20 C          64.5721   89.3295   14.2282 C.ar    1  UNL1        0.0358
     21 H          62.9589   92.3230   17.4972 H       1  UNL1        0.2923
     22 O          64.7973   91.9110   14.0402 O.3     1  UNL1       -0.4684
     23 C          64.8282   91.8963   12.5407 C.3     1  UNL1        0.2526
@<TRIPOS>BOND
     1    11    12    1
     2    12    10    1
     3    10     9    1
     4     9     8    1
     5     8     5    1
     6     5     6    1
     7     5     4    1
     8     4     2    1
     9     2     3    2
    10     2     1    1
    11     1    13    1
    12    13    14    1
    13    14    15   ar
    14    15    16   ar
    15    16    17   ar
    16    17    18    1
    17    17    19   ar
    18    19    22    1
    19    22    23    1
    20    19    20   ar
    21    20    14   ar
    22     6     7    1
    23    18    21    1
@<TRIPOS>MOLECULE
*****
 23 23 0 0 0
SMALL
GASTEIGER

@<TRIPOS>ATOM
      1 C          63.1126   84.0300   10.8432 C.3     1  UNL1        0.0693
      2 C          63.5664   82.7167   11.4083 C.2     1  UNL1        0.1534
      3 O          64.9996   82.2960   11.2705 O.2     1  UNL1       -0.2960
      4 C          62.5870   81.8241   12.1113 C.3     1  UNL1        0.0937
      5 C          62.7002   81.6049   13.5909 C.3     1  UNL1        0.1179
      6 O          63.4759   80.4343   14.1184 O.3     1  UNL1       -0.3840
      7 H          63.8364   79.9243   13.3762 H       1  UNL1        0.2104
      8 C          62.0378   82.5561   14.5429 C.3     1  UNL1        0.0297
      9 C          62.8202   83.6903   15.1357 C.3     1  UNL1        0.0025
     10 C          64.3071   83.7546   14.9482 C.3     1  UNL1        0.0001
     11 C          64.4031   86.3475   14.8157 C.3     1  UNL1        0.0000
     12 C          64.9428   85.0056   14.4182 C.3     1  UNL1        0.0000
     13 C          62.3432   84.9900   11.7013 C.3     1  UNL1        0.0342
     14 C          62.0063   86.3562   11.1818 C.ar    1  UNL1       -0.0185
     15 C          62.6869   87.5647   11.7529 C.ar    1  UNL1       -0.0009
     16 C          62.3500   88.9309   11.2334 C.ar    1  UNL1        0.0395
     17 C          61.3324   89.0887   10.1427 C.ar    1  UNL1        0.1677
     18 O          60.9955   90.4549    9.6231 O.3     1  UNL1       -0.5029
     19 C          60.6518   87.8802    9.5716 C.ar    1  UNL1        0.1718
     20 C          60.9887   86.5140   10.0911 C.ar    1  UNL1        0.0358
     21 H          61.4207   91.2098    9.9799 H       1  UNL1        0.2923
     22 O          59.6341   88.0379    8.4808 O.3     1  UNL1       -0.4684
     23 C          59.0586   86.8254    7.8111 C.3     1  UNL1        0.2526
@<TRIPOS>BOND
     1    11    12    1
     2    12    10    1
     3    10     9    1
     4     9     8    1
     5     8     5    1
     6     5     6    1
     7     5     4    1
     8     4     2    1
     9     2     3    2
    10     2     1    1
    11     1    13    1
    12    13    14    1
    13    14    15   ar
    14    15    16   ar
    15    16    17   ar
    16    17    18    1
    17    17    19   ar
    18    19    22    1
    19    22    23    1
    20    19    20   ar
    21    20    14   ar
    22     6     7    1
    23    18    21    1
@<TRIPOS>MOLECULE
*****
 23 23 0 0 0
SMALL
GASTEIGER

@<TRIPOS>ATOM
      1 C          60.8946   86.2162    8.4936 C.3     1  UNL1        0.0693
      2 C          59.7920   87.2316    8.5501 C.2     1  UNL1        0.1534
      3 O          58.4055   86.8581    8.1166 O.2     1  UNL1       -0.2960
      4 C          60.0760   88.6206    9.0402 C.3     1  UNL1        0.0937
      5 C          60.3446   88.8619   10.4961 C.3     1  UNL1        0.1179
      6 O          59.7133   87.9791   11.5316 O.3     1  UNL1       -0.3840
      7 H          59.1659   87.3082   11.0944 H       1  UNL1        0.2104
      8 C          61.2444   89.9860   10.9165 C.3     1  UNL1        0.0297
      9 C          62.7184   89.7511   11.0654 C.3     1  UNL1        0.0025
     10 C          63.3615   89.8538   12.4168 C.3     1  UNL1        0.0001
     11 C          64.3102   88.7047   14.5450 C.3     1  UNL1        0.0000
     12 C          63.7746   88.6104   13.1472 C.3     1  UNL1        0.0000
     13 C          62.1559   86.4344    9.2754 C.3     1  UNL1        0.0342
     14 C          62.7081   85.3329   10.1310 C.ar    1  UNL1       -0.0185
     15 C          63.4578   84.1973    9.5000 C.ar    1  UNL1       -0.0009
     16 C          64.0099   83.0958   10.3555 C.ar    1  UNL1        0.0395
     17 C          63.8123   83.1300   11.8420 C.ar    1  UNL1        0.1677
     18 O          64.3644   82.0285   12.6976 O.3     1  UNL1       -0.5029
     19 C          63.0626   84.2657   12.4730 C.ar    1  UNL1        0.1718
     20 C          62.5105   85.3671   11.6175 C.ar    1  UNL1        0.0358
     21 H          64.8327   81.3191   12.3034 H       1  UNL1        0.2923
     22 O          62.8650   84.2999   13.9596 O.3     1  UNL1       -0.4684
     23 C          63.8566   85.0110   14.8318 C.3     1  UNL1        0.2526
@<TRIPOS>BOND
     1    11    12    1
     2    12    10    1
     3    10     9    1
     4     9     8    1
     5     8     5    1
     6     5     6    1
     7     5     4    1
     8     4     2    1
     9     2     3    2
    10     2     1    1
    11     1    13    1
    12    13    14    1
    13    14    15   ar
    14    15    16   ar
    15    16    17   ar
    16    17    18    1
    17    17    19   ar
    18    19    22    1
    19    22    23    1
    20    19    20   ar
    21    20    14   ar
    22     6     7    1
    23    18    21    1
@<TRIPOS>MOLECULE
*****
 23 23 0 0 0
SMALL
GASTEIGER

@<TRIPOS>ATOM
      1 C          64.6379   86.9963   14.7717 C.3     1  UNL1        0.0693
      2 C          64.0070   88.3541   14.8629 C.2     1  UNL1        0.1534
      3 O          63.3269   88.7816   16.1296 O.2     1  UNL1       -0.2960
      4 C          64.0563   89.2845   13.6872 C.3     1  UNL1        0.0937
      5 C          64.0461   90.7686   13.9044 C.3     1  UNL1        0.1179
      6 O          63.4148   91.3417   15.1386 O.3     1  UNL1       -0.3840
      7 H          63.0637   90.6221   15.6861 H       1  UNL1        0.2104
      8 C          64.6672   91.6797   12.8875 C.3     1  UNL1        0.0297
      9 C          65.9032   92.4565   13.2321 C.3     1  UNL1        0.0025
     10 C          67.1209   91.7423   13.7393 C.3     1  UNL1        0.0001
     11 C          66.7047   92.7092   16.1145 C.3     1  UNL1        0.0000
     12 C          67.5536   91.9171   15.1648 C.3     1  UNL1        0.0000
     13 C          64.0262   85.8348   15.4974 C.3     1  UNL1        0.0342
     14 C          63.6820   84.5806   14.7500 C.ar    1  UNL1       -0.0185
     15 C          62.6118   83.6673   15.2702 C.ar    1  UNL1       -0.0009
     16 C          62.2676   82.4132   14.5228 C.ar    1  UNL1        0.0395
     17 C          62.9936   82.0722   13.2553 C.ar    1  UNL1        0.1677
     18 O          62.6493   80.8181   12.5079 O.3     1  UNL1       -0.5029
     19 C          64.0637   82.9855   12.7351 C.ar    1  UNL1        0.1718
     20 C          64.4080   84.2397   13.4825 C.ar    1  UNL1        0.0358
     21 H          61.9808   80.2476   12.8329 H       1  UNL1        0.2923
     22 O          64.7898   82.6446   11.4675 O.3     1  UNL1       -0.4684
     23 C          64.2071   83.0344   10.1414 C.3     1  UNL1        0.2526
@<TRIPOS>BOND
     1    11    12    1
     2    12    10    1
     3    10     9    1
     4     9     8    1
     5     8     5    1
     6     5     6    1
     7     5     4    1
     8     4     2    1
     9     2     3    2
    10     2     1    1
    11     1    13    1
    12    13    14    1
    13    14    15   ar
    14    15    16   ar
    15    16    17   ar
    16    17    18    1
    17    17    19   ar
    18    19    22    1
    19    22    23    1
    20    19    20   ar
    21    20    14   ar
    22     6     7    1
    23    18    21    1
@<TRIPOS>MOLECULE
*****
 23 23 0 0 0
SMALL
GASTEIGER

@<TRIPOS>ATOM
      1 C          62.0263   87.9847    9.8685 C.3     1  UNL1        0.0693
      2 C          61.7787   88.7890   11.1102 C.2     1  UNL1        0.1534
      3 O          60.4724   88.6641   11.8366 O.2     1  UNL1       -0.2960
      4 C          62.8376   89.7183   11.6254 C.3     1  UNL1        0.0937
      5 C          63.5677   89.3932   12.8948 C.3     1  UNL1        0.1179
      6 O          63.7014   87.9666   13.3388 O.3     1  UNL1       -0.3840
      7 H          63.2634   87.3858   12.6971 H       1  UNL1        0.2104
      8 C          64.1640   90.4946   13.7202 C.3     1  UNL1        0.0297
      9 C          64.9180   91.6070   13.0540 C.3     1  UNL1        0.0025
     10 C          66.0079   92.3234   13.7950 C.3     1  UNL1        0.0001
     11 C          67.6492   92.2837   15.8085 C.3     1  UNL1        0.0000
     12 C          66.9113   91.5626   14.7198 C.3     1  UNL1        0.0000
     13 C          61.5618   86.5605    9.7923 C.3     1  UNL1        0.0342
     14 C          62.4282   85.4594   10.3280 C.ar    1  UNL1       -0.0185
     15 C          63.1897   84.5775    9.3834 C.ar    1  UNL1       -0.0009
     16 C          64.0561   83.4763    9.9190 C.ar    1  UNL1        0.0395
     17 C          64.1610   83.2572   11.3992 C.ar    1  UNL1        0.1677
     18 O          65.0274   82.1560   11.9348 O.3     1  UNL1       -0.5029
     19 C          63.3994   84.1391   12.3437 C.ar    1  UNL1        0.1718
     20 C          62.5330   85.2402   11.8081 C.ar    1  UNL1        0.0358
     21 H          65.5031   81.6051   11.3448 H       1  UNL1        0.2923
     22 O          63.5042   83.9199   13.8240 O.3     1  UNL1       -0.4684
     23 C          64.5986   84.5850   14.6050 C.3     1  UNL1        0.2526
@<TRIPOS>BOND
     1    11    12    1
     2    12    10    1
     3    10     9    1
     4     9     8    1
     5     8     5    1
     6     5     6    1
     7     5     4    1
     8     4     2    1
     9     2     3    2
    10     2     1    1
    11     1    13    1
    12    13    14    1
    13    14    15   ar
    14    15    16   ar
    15    16    17   ar
    16    17    18    1
    17    17    19   ar
    18    19    22    1
    19    22    23    1
    20    19    20   ar
    21    20    14   ar
    22     6     7    1
    23    18    21    1
@<TRIPOS>MOLECULE
*****
 23 23 0 0 0
SMALL
GASTEIGER

@<TRIPOS>ATOM
      1 C          61.9263   90.5987   10.7263 C.3     1  UNL1        0.0693
      2 C          61.3431   89.4305    9.9879 C.2     1  UNL1        0.1534
      3 O          59.9933   89.5482    9.3443 O.2     1  UNL1       -0.2960
      4 C          62.1097   88.1447    9.8931 C.3     1  UNL1        0.0937
      5 C          62.2867   87.2856   11.1099 C.3     1  UNL1        0.1179
      6 O          63.0883   87.7893   12.2735 O.3     1  UNL1       -0.3840
      7 H          63.4186   88.6800   12.0772 H       1  UNL1        0.2104
      8 C          61.6623   85.9228   11.1632 C.3     1  UNL1        0.0297
      9 C          62.5225   84.7111   11.3668 C.3     1  UNL1        0.0025
     10 C          63.4461   84.2551   10.2763 C.3     1  UNL1        0.0001
     11 C          64.1249   82.1338   11.6140 C.3     1  UNL1        0.0000
     12 C          64.0223   82.8706   10.3115 C.3     1  UNL1        0.0000
     13 C          63.0748   91.3616   10.1358 C.3     1  UNL1        0.0342
     14 C          64.2597   91.7112   10.9866 C.ar    1  UNL1       -0.0185
     15 C          64.2319   91.4355   12.4608 C.ar    1  UNL1       -0.0009
     16 C          65.4167   91.7850   13.3117 C.ar    1  UNL1        0.0395
     17 C          66.6293   92.4103   12.6884 C.ar    1  UNL1        0.1677
     18 O          67.8141   92.7599   13.5393 O.3     1  UNL1       -0.5029
     19 C          66.6571   92.6860   11.2142 C.ar    1  UNL1        0.1718
     20 C          65.4723   92.3365   10.3634 C.ar    1  UNL1        0.0358
     21 H          67.7968   92.5876   14.4601 H       1  UNL1        0.2923
     22 O          67.8698   93.3113   10.5909 O.3     1  UNL1       -0.4684
     23 C          68.6040   92.5954    9.4962 C.3     1  UNL1        0.2526
@<TRIPOS>BOND
     1    11    12    1
     2    12    10    1
     3    10     9    1
     4     9     8    1
     5     8     5    1
     6     5     6    1
     7     5     4    1
     8     4     2    1
     9     2     3    2
    10     2     1    1
    11     1    13    1
    12    13    14    1
    13    14    15   ar
    14    15    16   ar
    15    16    17   ar
    16    17    18    1
    17    17    19   ar
    18    19    22    1
    19    22    23    1
    20    19    20   ar
    21    20    14   ar
    22     6     7    1
    23    18    21    1
@<TRIPOS>MOLECULE
*****
 23 23 0 0 0
SMALL
GASTEIGER

@<TRIPOS>ATOM
      1 C          62.4768   84.7683   12.9031 C.3     1  UNL1        0.0693
      2 C          63.0966   83.9424   13.9911 C.2     1  UNL1        0.1534
      3 O          64.3358   84.4246   14.6852 O.2     1  UNL1       -0.2960
      4 C          62.4771   82.6342   14.3849 C.3     1  UNL1        0.0937
      5 C          62.9342   81.3621   13.7348 C.3     1  UNL1        0.1179
      6 O          63.9752   80.5116   14.4006 O.3     1  UNL1       -0.3840
      7 H          64.2441   80.9245   15.2361 H       1  UNL1        0.2104
      8 C          62.3504   80.9404   12.4190 C.3     1  UNL1        0.0297
      9 C          62.8929   81.5087   11.1412 C.3     1  UNL1        0.0025
     10 C          64.2875   82.0594   11.0978 C.3     1  UNL1        0.0001
     11 C          63.5551   83.9295    9.4496 C.3     1  UNL1        0.0000
     12 C          64.5564   83.3676   10.4148 C.3     1  UNL1        0.0000
     13 C          63.0899   86.0816   12.5167 C.3     1  UNL1        0.0342
     14 C          62.3705   86.9955   11.5695 C.ar    1  UNL1       -0.0185
     15 C          62.7954   88.4283   11.4414 C.ar    1  UNL1       -0.0009
     16 C          62.0759   89.3421   10.4942 C.ar    1  UNL1        0.0395
     17 C          60.9315   88.8232    9.6750 C.ar    1  UNL1        0.1677
     18 O          60.2121   89.7370    8.7278 O.3     1  UNL1       -0.5029
     19 C          60.5066   87.3904    9.8031 C.ar    1  UNL1        0.1718
     20 C          61.2261   86.4765   10.7503 C.ar    1  UNL1        0.0358
     21 H          60.4775   90.6321    8.6478 H       1  UNL1        0.2923
     22 O          59.3622   86.8713    8.9839 O.3     1  UNL1       -0.4684
     23 C          59.6080   86.3440    7.6013 C.3     1  UNL1        0.2526
@<TRIPOS>BOND
     1    11    12    1
     2    12    10    1
     3    10     9    1
     4     9     8    1
     5     8     5    1
     6     5     6    1
     7     5     4    1
     8     4     2    1
     9     2     3    2
    10     2     1    1
    11     1    13    1
    12    13    14    1
    13    14    15   ar
    14    15    16   ar
    15    16    17   ar
    16    17    18    1
    17    17    19   ar
    18    19    22    1
    19    22    23    1
    20    19    20   ar
    21    20    14   ar
    22     6     7    1
    23    18    21    1
@<TRIPOS>MOLECULE
*****
 23 23 0 0 0
SMALL
GASTEIGER

@<TRIPOS>ATOM
      1 C          63.0862   90.3835   10.5266 C.3     1  UNL1        0.0693
      2 C          63.8445   91.2032   11.5281 C.2     1  UNL1        0.1534
      3 O          64.9355   92.1253   11.0706 O.2     1  UNL1       -0.2960
      4 C          63.5118   91.1007   12.9872 C.3     1  UNL1        0.0937
      5 C          64.2471   90.1250   13.8573 C.3     1  UNL1        0.1179
      6 O          63.8358   88.6826   13.8804 O.3     1  UNL1       -0.3840
      7 H          63.0847   88.5509   13.2808 H       1  UNL1        0.2104
      8 C          65.3937   90.5916   14.7045 C.3     1  UNL1        0.0297
      9 C          65.9240   91.9858   14.5468 C.3     1  UNL1        0.0025
     10 C          66.5787   92.6749   15.7073 C.3     1  UNL1        0.0001
     11 C          68.9491   93.7154   15.9273 C.3     1  UNL1        0.0000
     12 C          68.0515   92.5137   15.9415 C.3     1  UNL1        0.0000
     13 C          62.4508   89.0901   10.9430 C.3     1  UNL1        0.0342
     14 C          61.5628   88.3490    9.9878 C.ar    1  UNL1       -0.0185
     15 C          61.5981   86.8502    9.9401 C.ar    1  UNL1       -0.0009
     16 C          60.7102   86.1091    8.9850 C.ar    1  UNL1        0.0395
     17 C          59.7870   86.8668    8.0775 C.ar    1  UNL1        0.1677
     18 O          58.8991   86.1257    7.1223 O.3     1  UNL1       -0.5029
     19 C          59.7517   88.3656    8.1252 C.ar    1  UNL1        0.1718
     20 C          60.6396   89.1067    9.0803 C.ar    1  UNL1        0.0358
     21 H          58.9211   85.1894    7.0925 H       1  UNL1        0.2923
     22 O          58.8285   89.1233    7.2176 O.3     1  UNL1       -0.4684
     23 C          59.3879   89.9402    6.0909 C.3     1  UNL1        0.2526
@<TRIPOS>BOND
     1    11    12    1
     2    12    10    1
     3    10     9    1
     4     9     8    1
     5     8     5    1
     6     5     6    1
     7     5     4    1
     8     4     2    1
     9     2     3    2
    10     2     1    1
    11     1    13    1
    12    13    14    1
    13    14    15   ar
    14    15    16   ar
    15    16    17   ar
    16    17    18    1
    17    17    19   ar
    18    19    22    1
    19    22    23    1
    20    19    20   ar
    21    20    14   ar
    22     6     7    1
    23    18    21    1
