@<TRIPOS>MOLECULE
*****
 86 91 0 0 0
SMALL
GASTEIGER

@<TRIPOS>ATOM
      1 C          58.7500   91.5280    4.7201 C.3     1  UNL1        0.1742
      2 C          58.5121   90.7019    5.9494 C.3     1  UNL1        0.1742
      3 O          59.3550   89.4895    6.2129 O.3     1  UNL1       -0.3493
      4 C          59.4260   88.9114    7.5952 C.3     1  UNL1        0.1634
      5 C          60.1351   89.6591    8.6853 C.3     1  UNL1        0.1207
      6 N          61.3847   89.0935    9.2924 N.pl3   1  UNL1       -0.3159
      7 H          62.1156   89.6946    9.5640 H       1  UNL1        0.1483
      8 C          61.5207   87.6122    9.4856 C.ar    1  UNL1        0.1317
      9 N          60.9670   86.6681    8.4599 N.ar    1  UNL1       -0.2092
     10 C          61.1030   85.1869    8.6532 C.ar    1  UNL1        0.2000
     11 N          61.7928   84.6497    9.8721 N.ar    1  UNL1       -0.2238
     12 C          62.3465   85.5939   10.8978 C.ar    1  UNL1        0.0888
     13 C          63.0362   85.0567   12.1167 C.ar    1  UNL1        0.0574
     14 C          63.5899   86.0008   13.1423 C.ar    1  UNL1        0.1535
     15 C          63.4539   87.4822   12.9491 C.ar    1  UNL1        0.0850
     16 C          62.7642   88.0193   11.7302 C.ar    1  UNL1        0.0220
     17 C          62.2105   87.0751   10.7045 C.ar    1  UNL1        0.0505
     18 N          64.0076   88.4263   13.9748 N.am    1  UNL1       -0.2802
     19 C          63.3025   89.7184   14.2628 C.2     1  UNL1        0.2443
     20 O          62.0436   90.0665   13.5251 O.2     1  UNL1       -0.2730
     21 H          64.8339   88.1978   14.4589 H       1  UNL1        0.1550
     22 C          63.8562   90.6626   15.2885 C.3     1  UNL1        0.1521
     23 C          63.4326   90.7516   16.7247 C.3     1  UNL1        0.0310
     24 C          64.2453   91.8276   17.3818 C.3     1  UNL1        0.0237
     25 C          65.1712   92.4036   16.3517 C.3     1  UNL1        0.0939
     26 N          64.9307   91.6836   15.0580 N.am    1  UNL1       -0.2717
     27 C          65.6402   91.9396   13.7614 C.2     1  UNL1        0.2438
     28 O          65.2911   91.1358   12.5440 O.2     1  UNL1       -0.2731
     29 C          66.6987   92.9994   13.6822 C.3     1  UNL1        0.1487
     30 C          68.0245   92.7868   14.3509 C.3     1  UNL1        0.0250
     31 C          67.7279   93.9125   15.2968 C.3     1  UNL1        0.0021
     32 C          68.3210   91.6610   13.4050 C.3     1  UNL1        0.0021
     33 C          69.3502   92.5742   15.0196 C.3     1  UNL1        0.0021
     34 N          66.4315   94.2718   12.9342 N.am    1  UNL1       -0.2973
     35 C          66.5501   94.3021   11.4392 C.2     1  UNL1        0.2370
     36 O          66.9361   93.0599   10.6922 O.2     1  UNL1       -0.2737
     37 H          66.1781   95.0871   13.4245 H       1  UNL1        0.1499
     38 C          66.2829   95.5745   10.6911 C.3     1  UNL1        0.1316
     39 C          65.9469   96.8291   11.4414 C.3     1  UNL1        0.0270
     40 N          66.3517   95.5921    9.1928 N.3     1  UNL1       -0.2902
     41 C          67.3545   94.7358    8.4779 C.3     1  UNL1        0.0862
     42 H          66.5388   96.5564    8.9180 H       1  UNL1        0.1237
     43 O          64.2797   85.4637   14.3612 O.3     1  UNL1       -0.4701
     44 C          64.4552   83.9840   14.5328 C.3     1  UNL1        0.2525
     45 O          60.1496   91.8858    4.3162 O.3     1  UNL1       -0.3493
     46 C          60.3873   92.7154    3.0893 C.3     1  UNL1        0.1634
     47 C          61.6562   92.5505    2.3066 C.3     1  UNL1        0.1207
     48 N          61.8532   93.3105    1.0285 N.pl3   1  UNL1       -0.3159
     49 H          61.1373   93.3316    0.3530 H       1  UNL1        0.1483
     50 C          62.7238   95.0146   -3.0443 C.ar    1  UNL1        0.0850
     51 C          62.4336   94.4466   -1.6867 C.ar    1  UNL1        0.0220
     52 C          63.4312   94.6065   -0.5779 C.ar    1  UNL1        0.0505
     53 C          63.1410   94.0384    0.7797 C.ar    1  UNL1        0.1317
     54 N          64.1384   94.1983    1.8885 N.ar    1  UNL1       -0.2092
     55 C          65.4261   94.9262    1.6396 C.ar    1  UNL1        0.2000
     56 N          65.7163   95.4942    0.2820 N.ar    1  UNL1       -0.2238
     57 C          64.7188   95.3344   -0.8268 C.ar    1  UNL1        0.0888
     58 C          65.0090   95.9024   -2.1844 C.ar    1  UNL1        0.0574
     59 C          64.0116   95.7425   -3.2931 C.ar    1  UNL1        0.1535
     60 C          60.5451   95.7754   -4.2378 C.2     1  UNL1        0.2443
     61 O          60.3614   96.8559   -3.2138 O.2     1  UNL1       -0.2730
     62 N          61.7263   94.8548   -4.1531 N.am    1  UNL1       -0.2802
     63 H          61.8468   94.1456   -4.8252 H       1  UNL1        0.1550
     64 C          57.4445   94.8138   -3.9046 C.2     1  UNL1        0.2438
     65 O          58.2046   94.8808   -2.6132 O.2     1  UNL1       -0.2731
     66 N          58.1224   95.1735   -5.1934 N.am    1  UNL1       -0.2717
     67 C          57.4941   95.1543   -6.5555 C.3     1  UNL1        0.0939
     68 C          58.5311   95.5845   -7.5504 C.3     1  UNL1        0.0237
     69 C          59.8001   95.8695   -6.8033 C.3     1  UNL1        0.0310
     70 C          59.5476   95.6155   -5.3467 C.3     1  UNL1        0.1521
     71 C          56.0065   94.3871   -3.9073 C.3     1  UNL1        0.1487
     72 C          55.7818   92.0578   -5.0357 C.2     1  UNL1        0.2370
     73 O          56.6074   91.4482   -3.9418 O.2     1  UNL1       -0.2737
     74 N          55.4813   93.5272   -5.0185 N.am    1  UNL1       -0.2973
     75 H          54.9394   93.9273   -5.7365 H       1  UNL1        0.1499
     76 C          55.2567   91.1978   -6.1469 C.3     1  UNL1        0.1316
     77 C          55.6868   91.4539   -7.5609 C.3     1  UNL1        0.0270
     78 C          53.2984   89.6529   -6.8737 C.3     1  UNL1        0.0862
     79 N          54.3013   90.0818   -5.8441 N.3     1  UNL1       -0.2902
     80 H          54.8667   89.2617   -5.6242 H       1  UNL1        0.1237
     81 C          55.0936   94.8203   -2.7987 C.3     1  UNL1        0.0250
     82 C          55.8557   93.9598   -1.8349 C.3     1  UNL1        0.0021
     83 C          54.3316   95.6808   -3.7624 C.3     1  UNL1        0.0021
     84 C          54.1808   95.2535   -1.6900 C.3     1  UNL1        0.0021
     85 O          64.3018   96.3106   -4.6508 O.3     1  UNL1       -0.4701
     86 C          64.9679   95.4613   -5.6924 C.3     1  UNL1        0.2525
@<TRIPOS>BOND
     1    78    79    1
     2    79    76    1
     3    76    77    1
     4    76    72    1
     5    72    73    2
     6    72    74   am
     7    71    74    1
     8    71    64    1
     9    64    65    2
    10    64    66   am
    11    66    67    1
    12    67    68    1
    13    68    69    1
    14    69    70    1
    15    70    60    1
    16    60    61    2
    17    60    62   am
    18    62    50    1
    19    50    51   ar
    20    51    52   ar
    21    52    53   ar
    22    53    48    1
    23    48    47    1
    24    47    46    1
    25    46    45    1
    26    45     1    1
    27     1     2    1
    28     2     3    1
    29     3     4    1
    30     4     5    1
    31     5     6    1
    32     6     8    1
    33     8     9   ar
    34     9    10   ar
    35    10    11   ar
    36    11    12   ar
    37    12    13   ar
    38    13    14   ar
    39    14    43    1
    40    43    44    1
    41    14    15   ar
    42    15    18    1
    43    18    19   am
    44    19    20    2
    45    22    19    1
    46    22    23    1
    47    23    24    1
    48    24    25    1
    49    25    26    1
    50    26    27   am
    51    27    28    2
    52    27    29    1
    53    29    34    1
    54    34    35   am
    55    35    36    2
    56    35    38    1
    57    38    39    1
    58    38    40    1
    59    40    41    1
    60    29    30    1
    61    30    31    1
    62    30    32    1
    63    30    33    1
    64    15    16   ar
    65    16    17   ar
    66    53    54   ar
    67    54    55   ar
    68    55    56   ar
    69    56    57   ar
    70    57    58   ar
    71    58    59   ar
    72    59    85    1
    73    85    86    1
    74    71    81    1
    75    81    82    1
    76    81    83    1
    77    81    84    1
    78    70    66    1
    79    59    50   ar
    80    57    52   ar
    81    17     8   ar
    82    17    12   ar
    83    26    22    1
    84    79    80    1
    85    74    75    1
    86    62    63    1
    87    48    49    1
    88     6     7    1
    89    18    21    1
    90    34    37    1
    91    40    42    1
@<TRIPOS>MOLECULE
*****
 86 91 0 0 0
SMALL
GASTEIGER

@<TRIPOS>ATOM
      1 C          60.1314   89.6180    8.3147 C.3     1  UNL1        0.1742
      2 C          59.5281   90.6143    7.3694 C.3     1  UNL1        0.1742
      3 O          58.5122   90.1699    6.3593 O.3     1  UNL1       -0.3493
      4 C          58.6829   90.5334    4.9140 C.3     1  UNL1        0.1634
      5 C          58.7407   91.9754    4.5051 C.3     1  UNL1        0.1207
      6 N          59.4484   92.3692    3.2426 N.pl3   1  UNL1       -0.3159
      7 H          58.9423   92.7690    2.4987 H       1  UNL1        0.1483
      8 C          60.9273   92.1540    3.1134 C.ar    1  UNL1        0.1317
      9 N          61.6620   91.3542    4.1480 N.ar    1  UNL1       -0.2092
     10 C          63.1408   91.1390    4.0188 C.ar    1  UNL1        0.2000
     11 N          63.8849   91.7235    2.8549 N.ar    1  UNL1       -0.2238
     12 C          63.1502   92.5232    1.8202 C.ar    1  UNL1        0.0888
     13 C          63.8943   93.1077    0.6563 C.ar    1  UNL1        0.0574
     14 C          63.1596   93.9074   -0.3783 C.ar    1  UNL1        0.1535
     15 C          61.6807   94.1227   -0.2491 C.ar    1  UNL1        0.0850
     16 C          60.9366   93.5382    0.9148 C.ar    1  UNL1        0.0220
     17 C          61.6714   92.7384    1.9495 C.ar    1  UNL1        0.0505
     18 N          60.9460   94.9225   -1.2838 N.am    1  UNL1       -0.2802
     19 C          60.9216   94.4606   -2.7107 C.2     1  UNL1        0.2443
     20 O          61.6318   93.1989   -3.1029 O.2     1  UNL1       -0.2730
     21 H          60.4799   95.7505   -1.0264 H       1  UNL1        0.1550
     22 C          60.1868   95.2603   -3.7454 C.3     1  UNL1        0.1521
     23 C          60.7800   96.3204   -4.6254 C.3     1  UNL1        0.0310
     24 C          59.6897   96.8556   -5.5057 C.3     1  UNL1        0.0237
     25 C          58.4227   96.1263   -5.1697 C.3     1  UNL1        0.0939
     26 N          58.7299   95.1404   -4.0818 N.am    1  UNL1       -0.2717
     27 C          57.7520   94.1997   -3.4425 C.2     1  UNL1        0.2438
     28 O          58.2072   93.2658   -2.3605 O.2     1  UNL1       -0.2731
     29 C          56.3189   94.1928   -3.8851 C.3     1  UNL1        0.1487
     30 C          55.3228   95.0926   -3.2157 C.3     1  UNL1        0.0250
     31 C          54.9066   95.6274   -4.5539 C.3     1  UNL1        0.0021
     32 C          55.7389   94.5578   -1.8776 C.3     1  UNL1        0.0021
     33 C          54.3267   95.9925   -2.5464 C.3     1  UNL1        0.0021
     34 N          55.8818   93.2860   -4.9972 N.am    1  UNL1       -0.2973
     35 C          55.5572   91.8499   -4.7102 C.2     1  UNL1        0.2370
     36 O          55.6697   91.3207   -3.3112 O.2     1  UNL1       -0.2737
     37 H          55.8079   93.6333   -5.9154 H       1  UNL1        0.1499
     38 C          55.1201   90.9430   -5.8223 C.3     1  UNL1        0.1316
     39 C          55.3235   91.3552   -7.2501 C.3     1  UNL1        0.0270
     40 N          54.4796   89.6239   -5.5064 N.3     1  UNL1       -0.2902
     41 C          53.1732   89.2528   -6.1432 C.3     1  UNL1        0.0862
     42 H          54.3319   89.6025   -4.4973 H       1  UNL1        0.1237
     43 O          63.9037   94.4919   -1.5423 O.3     1  UNL1       -0.4701
     44 C          64.7627   95.7064   -1.3498 C.3     1  UNL1        0.2525
     45 O          60.6438   90.0671    9.6511 O.3     1  UNL1       -0.3493
     46 C          62.1158   90.0392    9.9379 C.3     1  UNL1        0.1634
     47 C          62.7933   91.2533   10.5009 C.3     1  UNL1        0.1207
     48 N          64.1129   91.7010    9.9456 N.pl3   1  UNL1       -0.3159
     49 H          64.4783   91.2721    9.1383 H       1  UNL1        0.1483
     50 C          65.4892   91.2045   14.2012 C.ar    1  UNL1        0.0850
     51 C          65.0304   91.3700   12.7826 C.ar    1  UNL1        0.0220
     52 C          65.3345   92.6367   12.0390 C.ar    1  UNL1        0.0505
     53 C          64.8758   92.8022   10.6205 C.ar    1  UNL1        0.1317
     54 N          65.1798   94.0689    9.8769 N.ar    1  UNL1       -0.2092
     55 C          65.9427   95.1701   10.5517 C.ar    1  UNL1        0.2000
     56 N          66.4014   95.0046   11.9702 N.ar    1  UNL1       -0.2238
     57 C          66.0974   93.7379   12.7139 C.ar    1  UNL1        0.0888
     58 C          66.5561   93.5724   14.1324 C.ar    1  UNL1        0.0574
     59 C          66.2521   92.3057   14.8760 C.ar    1  UNL1        0.1535
     60 C          63.7635   89.5724   15.2539 C.2     1  UNL1        0.2443
     61 O          62.6460   90.4736   14.8193 O.2     1  UNL1       -0.2730
     62 N          65.1851   89.9378   14.9448 N.am    1  UNL1       -0.2802
     63 H          65.9186   89.3463   15.2300 H       1  UNL1        0.1550
     64 C          63.6896   86.5697   13.9780 C.2     1  UNL1        0.2438
     65 O          64.0242   87.6454   12.9875 O.2     1  UNL1       -0.2731
     66 N          63.4255   86.9255   15.4110 N.am    1  UNL1       -0.2717
     67 C          63.0811   85.9635   16.5093 C.3     1  UNL1        0.0939
     68 C          62.9022   86.7492   17.7745 C.3     1  UNL1        0.0237
     69 C          63.1361   88.1967   17.4582 C.3     1  UNL1        0.0310
     70 C          63.4595   88.3056   15.9976 C.3     1  UNL1        0.1521
     71 C          63.6191   85.1382   13.5354 C.3     1  UNL1        0.1487
     72 C          62.5937   85.3210   11.1553 C.2     1  UNL1        0.2370
     73 O          61.4870   86.1760   11.6977 O.2     1  UNL1       -0.2737
     74 N          63.6598   84.8021   12.0741 N.am    1  UNL1       -0.2973
     75 H          64.3862   84.2410   11.7181 H       1  UNL1        0.1499
     76 C          62.6344   84.9850    9.6939 C.3     1  UNL1        0.1316
     77 C          61.8782   85.8269    8.7093 C.3     1  UNL1        0.0270
     78 C          63.8698   82.7543   10.1917 C.3     1  UNL1        0.0862
     79 N          63.4312   83.8069    9.2172 N.3     1  UNL1       -0.2902
     80 H          62.8667   83.3364    8.5098 H       1  UNL1        0.1237
     81 C          63.5078   84.0429   14.5541 C.3     1  UNL1        0.0250
     82 C          62.0260   83.9841   14.3291 C.3     1  UNL1        0.0021
     83 C          64.9897   84.1016   14.7791 C.3     1  UNL1        0.0021
     84 C          63.3966   82.9475   15.5728 C.3     1  UNL1        0.0021
     85 O          66.7108   92.1402   16.2945 O.3     1  UNL1       -0.4701
     86 C          68.1527   92.3566   16.6465 C.3     1  UNL1        0.2525
@<TRIPOS>BOND
     1    78    79    1
     2    79    76    1
     3    76    77    1
     4    76    72    1
     5    72    73    2
     6    72    74   am
     7    71    74    1
     8    71    64    1
     9    64    65    2
    10    64    66   am
    11    66    67    1
    12    67    68    1
    13    68    69    1
    14    69    70    1
    15    70    60    1
    16    60    61    2
    17    60    62   am
    18    62    50    1
    19    50    51   ar
    20    51    52   ar
    21    52    53   ar
    22    53    48    1
    23    48    47    1
    24    47    46    1
    25    46    45    1
    26    45     1    1
    27     1     2    1
    28     2     3    1
    29     3     4    1
    30     4     5    1
    31     5     6    1
    32     6     8    1
    33     8     9   ar
    34     9    10   ar
    35    10    11   ar
    36    11    12   ar
    37    12    13   ar
    38    13    14   ar
    39    14    43    1
    40    43    44    1
    41    14    15   ar
    42    15    18    1
    43    18    19   am
    44    19    20    2
    45    22    19    1
    46    22    23    1
    47    23    24    1
    48    24    25    1
    49    25    26    1
    50    26    27   am
    51    27    28    2
    52    27    29    1
    53    29    34    1
    54    34    35   am
    55    35    36    2
    56    35    38    1
    57    38    39    1
    58    38    40    1
    59    40    41    1
    60    29    30    1
    61    30    31    1
    62    30    32    1
    63    30    33    1
    64    15    16   ar
    65    16    17   ar
    66    53    54   ar
    67    54    55   ar
    68    55    56   ar
    69    56    57   ar
    70    57    58   ar
    71    58    59   ar
    72    59    85    1
    73    85    86    1
    74    71    81    1
    75    81    82    1
    76    81    83    1
    77    81    84    1
    78    70    66    1
    79    59    50   ar
    80    57    52   ar
    81    17     8   ar
    82    17    12   ar
    83    26    22    1
    84    79    80    1
    85    74    75    1
    86    62    63    1
    87    48    49    1
    88     6     7    1
    89    18    21    1
    90    34    37    1
    91    40    42    1
@<TRIPOS>MOLECULE
*****
 86 91 0 0 0
SMALL
GASTEIGER

@<TRIPOS>ATOM
      1 C          60.2238   89.3615    8.9382 C.3     1  UNL1        0.1742
      2 C          60.2236   89.7241    7.4827 C.3     1  UNL1        0.1742
      3 O          59.1542   90.6210    6.9333 O.3     1  UNL1       -0.3493
      4 C          58.8340   90.5960    5.4681 C.3     1  UNL1        0.1634
      5 C          58.5635   91.8778    4.7375 C.3     1  UNL1        0.1207
      6 N          59.2239   92.1421    3.4168 N.pl3   1  UNL1       -0.3159
      7 H          58.6799   92.3961    2.6366 H       1  UNL1        0.1483
      8 C          60.7130   92.0194    3.2850 C.ar    1  UNL1        0.1317
      9 N          61.4945   91.2422    4.3025 N.ar    1  UNL1       -0.2092
     10 C          62.9836   91.1195    4.1706 C.ar    1  UNL1        0.2000
     11 N          63.6913   91.7739    3.0212 N.ar    1  UNL1       -0.2238
     12 C          62.9098   92.5511    2.0038 C.ar    1  UNL1        0.0888
     13 C          63.6174   93.2055    0.8545 C.ar    1  UNL1        0.0574
     14 C          62.8360   93.9827   -0.1630 C.ar    1  UNL1        0.1535
     15 C          61.3468   94.1055   -0.0311 C.ar    1  UNL1        0.0850
     16 C          60.6391   93.4510    1.1182 C.ar    1  UNL1        0.0220
     17 C          61.4207   92.6738    2.1357 C.ar    1  UNL1        0.0505
     18 N          60.5653   94.8826   -1.0486 N.am    1  UNL1       -0.2802
     19 C          60.4848   94.3950   -2.4648 C.2     1  UNL1        0.2443
     20 O          61.1857   93.1303   -2.8636 O.2     1  UNL1       -0.2730
     21 H          60.1052   95.7127   -0.7869 H       1  UNL1        0.1550
     22 C          59.7033   95.1722   -3.4823 C.3     1  UNL1        0.1521
     23 C          60.1846   96.3811   -4.2285 C.3     1  UNL1        0.0310
     24 C          59.0821   96.8330   -5.1396 C.3     1  UNL1        0.0237
     25 C          57.9192   95.9032   -4.9566 C.3     1  UNL1        0.0939
     26 N          58.3032   94.8769   -3.9324 N.am    1  UNL1       -0.2717
     27 C          57.4387   93.7525   -3.4439 C.2     1  UNL1        0.2438
     28 O          57.9614   92.7990   -2.4105 O.2     1  UNL1       -0.2731
     29 C          56.0517   93.5816   -3.9886 C.3     1  UNL1        0.1487
     30 C          55.8498   93.0080   -5.3599 C.3     1  UNL1        0.0250
     31 C          56.1723   91.6402   -4.8352 C.3     1  UNL1        0.0021
     32 C          55.5274   94.3757   -5.8845 C.3     1  UNL1        0.0021
     33 C          55.6480   92.4344   -6.7311 C.3     1  UNL1        0.0021
     34 N          54.8665   93.9842   -3.1621 N.am    1  UNL1       -0.2973
     35 C          54.5888   95.4359   -2.9065 C.2     1  UNL1        0.2370
     36 O          55.4963   96.4850   -3.4773 O.2     1  UNL1       -0.2737
     37 H          54.2708   93.2957   -2.7875 H       1  UNL1        0.1499
     38 C          53.4035   95.8387   -2.0799 C.3     1  UNL1        0.1316
     39 C          53.5641   96.8443   -0.9786 C.3     1  UNL1        0.0270
     40 N          52.0578   95.2357   -2.3548 N.3     1  UNL1       -0.2902
     41 C          51.0909   95.9404   -3.2596 C.3     1  UNL1        0.0862
     42 H          51.5932   95.1292   -1.4531 H       1  UNL1        0.1237
     43 O          63.5436   94.6371   -1.3123 O.3     1  UNL1       -0.4701
     44 C          64.8704   95.3024   -1.0955 C.3     1  UNL1        0.2525
     45 O          60.4357   90.4239    9.9757 O.3     1  UNL1       -0.3493
     46 C          61.8166   90.7060   10.4891 C.3     1  UNL1        0.1634
     47 C          62.6823   91.7163    9.7965 C.3     1  UNL1        0.1207
     48 N          64.1735   91.6548    9.9465 N.pl3   1  UNL1       -0.3159
     49 H          64.6723   90.8828    9.5937 H       1  UNL1        0.1483
     50 C          65.4922   91.1800   14.2227 C.ar    1  UNL1        0.0850
     51 C          65.0526   91.3383   12.7973 C.ar    1  UNL1        0.0220
     52 C          65.3443   92.6113   12.0595 C.ar    1  UNL1        0.0505
     53 C          64.9048   92.7696   10.6341 C.ar    1  UNL1        0.1317
     54 N          65.1964   94.0426    9.8963 N.ar    1  UNL1       -0.2092
     55 C          65.9276   95.1573   10.5838 C.ar    1  UNL1        0.2000
     56 N          66.3671   94.9990   12.0092 N.ar    1  UNL1       -0.2238
     57 C          66.0755   93.7260   12.7470 C.ar    1  UNL1        0.0888
     58 C          66.5150   93.5677   14.1724 C.ar    1  UNL1        0.0574
     59 C          66.2234   92.2948   14.9103 C.ar    1  UNL1        0.1535
     60 C          63.7832   89.5312   15.2766 C.2     1  UNL1        0.2443
     61 O          62.6575   90.4283   14.8548 O.2     1  UNL1       -0.2730
     62 N          65.2005   89.9070   14.9606 N.am    1  UNL1       -0.2802
     63 H          65.9394   89.3182   15.2374 H       1  UNL1        0.1550
     64 C          63.6973   86.5383   13.9785 C.2     1  UNL1        0.2438
     65 O          64.0165   87.6223   12.9920 O.2     1  UNL1       -0.2731
     66 N          63.4521   86.8825   15.4177 N.am    1  UNL1       -0.2717
     67 C          63.1244   85.9113   16.5130 C.3     1  UNL1        0.0939
     68 C          62.9613   86.6869   17.7866 C.3     1  UNL1        0.0237
     69 C          63.1883   88.1372   17.4785 C.3     1  UNL1        0.0310
     70 C          63.4916   88.2581   16.0145 C.3     1  UNL1        0.1521
     71 C          63.6234   85.1102   13.5258 C.3     1  UNL1        0.1487
     72 C          62.3526   85.4255   11.2818 C.2     1  UNL1        0.2370
     73 O          61.4050   86.3757   11.9520 O.2     1  UNL1       -0.2737
     74 N          63.4618   84.7927   12.0687 N.am    1  UNL1       -0.2973
     75 H          64.0837   84.1690   11.6288 H       1  UNL1        0.1499
     76 C          62.1909   85.1080    9.8247 C.3     1  UNL1        0.1316
     77 C          63.2650   84.3548    9.0974 C.3     1  UNL1        0.0270
     78 C          61.0575   86.0690    7.6935 C.3     1  UNL1        0.0862
     79 N          60.9551   85.5439    9.0949 N.3     1  UNL1       -0.2902
     80 H          60.3324   84.7366    9.0620 H       1  UNL1        0.1237
     81 C          63.7111   83.9995   14.5301 C.3     1  UNL1        0.0250
     82 C          65.1973   84.1868   14.6075 C.3     1  UNL1        0.0021
     83 C          62.2248   83.8123   14.4528 C.3     1  UNL1        0.0021
     84 C          63.7987   82.8889   15.5345 C.3     1  UNL1        0.0021
     85 O          66.6629   92.1365   16.3357 O.3     1  UNL1       -0.4701
     86 C          68.1130   92.2758   16.6932 C.3     1  UNL1        0.2525
@<TRIPOS>BOND
     1    78    79    1
     2    79    76    1
     3    76    77    1
     4    76    72    1
     5    72    73    2
     6    72    74   am
     7    71    74    1
     8    71    64    1
     9    64    65    2
    10    64    66   am
    11    66    67    1
    12    67    68    1
    13    68    69    1
    14    69    70    1
    15    70    60    1
    16    60    61    2
    17    60    62   am
    18    62    50    1
    19    50    51   ar
    20    51    52   ar
    21    52    53   ar
    22    53    48    1
    23    48    47    1
    24    47    46    1
    25    46    45    1
    26    45     1    1
    27     1     2    1
    28     2     3    1
    29     3     4    1
    30     4     5    1
    31     5     6    1
    32     6     8    1
    33     8     9   ar
    34     9    10   ar
    35    10    11   ar
    36    11    12   ar
    37    12    13   ar
    38    13    14   ar
    39    14    43    1
    40    43    44    1
    41    14    15   ar
    42    15    18    1
    43    18    19   am
    44    19    20    2
    45    22    19    1
    46    22    23    1
    47    23    24    1
    48    24    25    1
    49    25    26    1
    50    26    27   am
    51    27    28    2
    52    27    29    1
    53    29    34    1
    54    34    35   am
    55    35    36    2
    56    35    38    1
    57    38    39    1
    58    38    40    1
    59    40    41    1
    60    29    30    1
    61    30    31    1
    62    30    32    1
    63    30    33    1
    64    15    16   ar
    65    16    17   ar
    66    53    54   ar
    67    54    55   ar
    68    55    56   ar
    69    56    57   ar
    70    57    58   ar
    71    58    59   ar
    72    59    85    1
    73    85    86    1
    74    71    81    1
    75    81    82    1
    76    81    83    1
    77    81    84    1
    78    70    66    1
    79    59    50   ar
    80    57    52   ar
    81    17     8   ar
    82    17    12   ar
    83    26    22    1
    84    79    80    1
    85    74    75    1
    86    62    63    1
    87    48    49    1
    88     6     7    1
    89    18    21    1
    90    34    37    1
    91    40    42    1
@<TRIPOS>MOLECULE
*****
 86 91 0 0 0
SMALL
GASTEIGER

@<TRIPOS>ATOM
      1 C          59.0773   89.9371    7.3505 C.3     1  UNL1        0.1742
      2 C          60.0794   89.2179    8.2041 C.3     1  UNL1        0.1742
      3 O          61.2666   89.9549    8.7493 O.3     1  UNL1       -0.3493
      4 C          61.2331   90.5027   10.1453 C.3     1  UNL1        0.1634
      5 C          62.5053   90.9352   10.8120 C.3     1  UNL1        0.1207
      6 N          63.6180   91.5225    9.9952 N.pl3   1  UNL1       -0.3159
      7 H          63.7573   91.2250    9.0671 H       1  UNL1        0.1483
      8 C          64.5184   92.5630   10.5925 C.ar    1  UNL1        0.1317
      9 N          64.8236   93.8179    9.8298 N.ar    1  UNL1       -0.2092
     10 C          65.7239   94.8584   10.4271 C.ar    1  UNL1        0.2000
     11 N          66.3191   94.6438   11.7872 N.ar    1  UNL1       -0.2238
     12 C          66.0138   93.3888   12.5499 C.ar    1  UNL1        0.0888
     13 C          66.6090   93.1743   13.9100 C.ar    1  UNL1        0.0574
     14 C          66.3038   91.9193   14.6727 C.ar    1  UNL1        0.1535
     15 C          65.4034   90.8788   14.0754 C.ar    1  UNL1        0.0850
     16 C          64.8082   91.0933   12.7153 C.ar    1  UNL1        0.0220
     17 C          65.1135   92.3484   11.9526 C.ar    1  UNL1        0.0505
     18 N          65.0981   89.6238   14.8381 N.am    1  UNL1       -0.2802
     19 C          63.7261   89.4047   15.4034 C.2     1  UNL1        0.2443
     20 O          62.6594   90.4405   15.2059 O.2     1  UNL1       -0.2730
     21 H          65.7983   88.9440   14.9678 H       1  UNL1        0.1550
     22 C          63.4209   88.1496   16.1662 C.3     1  UNL1        0.1521
     23 C          63.1205   88.0604   17.6331 C.3     1  UNL1        0.0310
     24 C          62.8764   86.6192   17.9694 C.3     1  UNL1        0.0237
     25 C          63.0258   85.8176   16.7104 C.3     1  UNL1        0.0939
     26 N          63.3623   86.7635   15.5959 N.am    1  UNL1       -0.2717
     27 C          63.5988   86.3890   14.1628 C.2     1  UNL1        0.2438
     28 O          63.9285   87.4499   13.1549 O.2     1  UNL1       -0.2731
     29 C          63.5057   84.9536   13.7375 C.3     1  UNL1        0.1487
     30 C          63.1450   83.8965   14.7387 C.3     1  UNL1        0.0250
     31 C          64.5964   83.5541   14.9001 C.3     1  UNL1        0.0021
     32 C          61.6935   84.2389   14.5773 C.3     1  UNL1        0.0021
     33 C          62.7843   82.8394   15.7399 C.3     1  UNL1        0.0021
     34 N          63.7732   84.5753   12.3108 N.am    1  UNL1       -0.2973
     35 C          62.8625   85.0614   11.2226 C.2     1  UNL1        0.2370
     36 O          61.6843   85.9258   11.5610 O.2     1  UNL1       -0.2737
     37 H          64.5466   84.0080   12.0888 H       1  UNL1        0.1499
     38 C          63.1300   84.6831    9.7959 C.3     1  UNL1        0.1316
     39 C          63.7352   83.3488    9.4746 C.3     1  UNL1        0.0270
     40 N          62.7923   85.6393    8.6906 N.3     1  UNL1       -0.2902
     41 C          61.3890   85.7139    8.1660 C.3     1  UNL1        0.0862
     42 H          63.3898   85.3982    7.8999 H       1  UNL1        0.1237
     43 O          66.8989   91.7048   16.0328 O.3     1  UNL1       -0.4701
     44 C          68.1293   92.4595   16.4406 C.3     1  UNL1        0.2525
     45 O          59.3992   90.2512    5.9194 O.3     1  UNL1       -0.3493
     46 C          59.0499   91.5940    5.3494 C.3     1  UNL1        0.1634
     47 C          58.5702   91.7056    3.9326 C.3     1  UNL1        0.1207
     48 N          59.3706   92.4812    2.9287 N.pl3   1  UNL1       -0.3159
     49 H          58.9189   93.1037    2.3141 H       1  UNL1        0.1483
     50 C          61.5677   93.3684   -0.8969 C.ar    1  UNL1        0.0850
     51 C          60.8353   93.0727    0.3783 C.ar    1  UNL1        0.0220
     52 C          61.5915   92.6042    1.5861 C.ar    1  UNL1        0.0505
     53 C          60.8591   92.3085    2.8613 C.ar    1  UNL1        0.1317
     54 N          61.6152   91.8401    4.0691 N.ar    1  UNL1       -0.2092
     55 C          63.1037   91.6674    4.0017 C.ar    1  UNL1        0.2000
     56 N          63.8360   91.9631    2.7265 N.ar    1  UNL1       -0.2238
     57 C          63.0799   92.4315    1.5187 C.ar    1  UNL1        0.0888
     58 C          63.8123   92.7272    0.2435 C.ar    1  UNL1        0.0574
     59 C          63.0562   93.1957   -0.9643 C.ar    1  UNL1        0.1535
     60 C          60.6792   95.3047   -2.3840 C.2     1  UNL1        0.2443
     61 O          61.3028   96.3040   -1.4555 O.2     1  UNL1       -0.2730
     62 N          60.8116   93.8368   -2.1048 N.am    1  UNL1       -0.2802
     63 H          60.4022   93.1809   -2.7142 H       1  UNL1        0.1550
     64 C          57.5593   94.6387   -3.0713 C.2     1  UNL1        0.2438
     65 O          58.0445   94.0311   -1.7885 O.2     1  UNL1       -0.2731
     66 N          58.4889   95.4669   -3.9077 N.am    1  UNL1       -0.2717
     67 C          58.1478   96.1345   -5.2070 C.3     1  UNL1        0.0939
     68 C          59.3710   96.8532   -5.6941 C.3     1  UNL1        0.0237
     69 C          60.4682   96.6298   -4.6959 C.3     1  UNL1        0.0310
     70 C          59.9230   95.7731   -3.5919 C.3     1  UNL1        0.1521
     71 C          56.1443   94.4180   -3.5175 C.3     1  UNL1        0.1487
     72 C          56.1958   92.2883   -5.0046 C.2     1  UNL1        0.2370
     73 O          56.8001   91.5122   -3.8721 O.2     1  UNL1       -0.2737
     74 N          55.8678   93.7412   -4.8273 N.am    1  UNL1       -0.2973
     75 H          55.4712   94.2506   -5.5706 H       1  UNL1        0.1499
     76 C          55.9193   91.6114   -6.3143 C.3     1  UNL1        0.1316
     77 C          57.0365   91.3748   -7.2869 C.3     1  UNL1        0.0270
     78 C          54.2062   89.7094   -6.7587 C.3     1  UNL1        0.0862
     79 N          54.5256   91.1711   -6.6515 N.3     1  UNL1       -0.2902
     80 H          53.9134   91.5542   -5.9312 H       1  UNL1        0.1237
     81 C          55.0058   94.8742   -2.6540 C.3     1  UNL1        0.0250
     82 C          55.1661   93.6531   -1.7976 C.3     1  UNL1        0.0021
     83 C          54.8455   96.0952   -3.5103 C.3     1  UNL1        0.0021
     84 C          53.8673   95.3303   -1.7905 C.3     1  UNL1        0.0021
     85 O          63.7886   93.4914   -2.2395 O.3     1  UNL1       -0.4701
     86 C          64.3794   94.8512   -2.4671 C.3     1  UNL1        0.2525
@<TRIPOS>BOND
     1    78    79    1
     2    79    76    1
     3    76    77    1
     4    76    72    1
     5    72    73    2
     6    72    74   am
     7    71    74    1
     8    71    64    1
     9    64    65    2
    10    64    66   am
    11    66    67    1
    12    67    68    1
    13    68    69    1
    14    69    70    1
    15    70    60    1
    16    60    61    2
    17    60    62   am
    18    62    50    1
    19    50    51   ar
    20    51    52   ar
    21    52    53   ar
    22    53    48    1
    23    48    47    1
    24    47    46    1
    25    46    45    1
    26    45     1    1
    27     1     2    1
    28     2     3    1
    29     3     4    1
    30     4     5    1
    31     5     6    1
    32     6     8    1
    33     8     9   ar
    34     9    10   ar
    35    10    11   ar
    36    11    12   ar
    37    12    13   ar
    38    13    14   ar
    39    14    43    1
    40    43    44    1
    41    14    15   ar
    42    15    18    1
    43    18    19   am
    44    19    20    2
    45    22    19    1
    46    22    23    1
    47    23    24    1
    48    24    25    1
    49    25    26    1
    50    26    27   am
    51    27    28    2
    52    27    29    1
    53    29    34    1
    54    34    35   am
    55    35    36    2
    56    35    38    1
    57    38    39    1
    58    38    40    1
    59    40    41    1
    60    29    30    1
    61    30    31    1
    62    30    32    1
    63    30    33    1
    64    15    16   ar
    65    16    17   ar
    66    53    54   ar
    67    54    55   ar
    68    55    56   ar
    69    56    57   ar
    70    57    58   ar
    71    58    59   ar
    72    59    85    1
    73    85    86    1
    74    71    81    1
    75    81    82    1
    76    81    83    1
    77    81    84    1
    78    70    66    1
    79    59    50   ar
    80    57    52   ar
    81    17     8   ar
    82    17    12   ar
    83    26    22    1
    84    79    80    1
    85    74    75    1
    86    62    63    1
    87    48    49    1
    88     6     7    1
    89    18    21    1
    90    34    37    1
    91    40    42    1
@<TRIPOS>MOLECULE
*****
 86 91 0 0 0
SMALL
GASTEIGER

@<TRIPOS>ATOM
      1 C          60.1102   90.0997    7.0233 C.3     1  UNL1        0.1742
      2 C          59.4012   90.3010    5.7169 C.3     1  UNL1        0.1742
      3 O          59.9174   91.3062    4.7305 O.3     1  UNL1       -0.3493
      4 C          58.9567   92.0942    3.8903 C.3     1  UNL1        0.1634
      5 C          59.4576   93.2190    3.0336 C.3     1  UNL1        0.1207
      6 N          60.1468   92.9228    1.7346 N.pl3   1  UNL1       -0.3159
      7 H          59.6256   92.6058    0.9619 H       1  UNL1        0.1483
      8 C          61.6302   93.1097    1.6130 C.ar    1  UNL1        0.1317
      9 N          62.5453   92.5477    2.6602 N.ar    1  UNL1       -0.2092
     10 C          64.0285   92.7347    2.5386 C.ar    1  UNL1        0.2000
     11 N          64.5968   93.4836    1.3697 N.ar    1  UNL1       -0.2238
     12 C          63.6817   94.0456    0.3225 C.ar    1  UNL1        0.0888
     13 C          64.2499   94.7945   -0.8464 C.ar    1  UNL1        0.0574
     14 C          63.3348   95.3565   -1.8936 C.ar    1  UNL1        0.1535
     15 C          61.8514   95.1696   -1.7720 C.ar    1  UNL1        0.0850
     16 C          61.2832   94.4206   -0.6032 C.ar    1  UNL1        0.0220
     17 C          62.1984   93.8586    0.4441 C.ar    1  UNL1        0.0505
     18 N          60.9363   95.7315   -2.8193 N.am    1  UNL1       -0.2802
     19 C          60.8381   95.0708   -4.1623 C.2     1  UNL1        0.2443
     20 O          61.6551   93.8480   -4.4580 O.2     1  UNL1       -0.2730
     21 H          60.4001   96.5341   -2.6251 H       1  UNL1        0.1550
     22 C          59.9230   95.6328   -5.2096 C.3     1  UNL1        0.1521
     23 C          60.3257   96.5276   -6.3441 C.3     1  UNL1        0.0310
     24 C          59.0961   96.8464   -7.1419 C.3     1  UNL1        0.0237
     25 C          57.9335   96.1486   -6.5004 C.3     1  UNL1        0.0939
     26 N          58.4446   95.3985   -5.3062 N.am    1  UNL1       -0.2717
     27 C          57.6216   94.5612   -4.3725 C.2     1  UNL1        0.2438
     28 O          58.2750   93.8665   -3.2148 O.2     1  UNL1       -0.2731
     29 C          56.1454   94.4187   -4.5965 C.3     1  UNL1        0.1487
     30 C          55.2714   95.6371   -4.6347 C.3     1  UNL1        0.0250
     31 C          55.8541   96.0960   -3.3309 C.3     1  UNL1        0.0021
     32 C          54.6887   95.1783   -5.9385 C.3     1  UNL1        0.0021
     33 C          54.3974   96.8556   -4.6729 C.3     1  UNL1        0.0021
     34 N          55.5431   93.0575   -4.7823 N.am    1  UNL1       -0.2973
     35 C          55.8027   92.2883   -6.0436 C.2     1  UNL1        0.2370
     36 O          56.6647   92.8802   -7.1191 O.2     1  UNL1       -0.2737
     37 H          54.9773   92.6690   -4.0765 H       1  UNL1        0.1499
     38 C          55.2005   90.9271   -6.2295 C.3     1  UNL1        0.1316
     39 C          55.2918   90.2420   -7.5607 C.3     1  UNL1        0.0270
     40 N          54.5069   90.2511   -5.0841 N.3     1  UNL1       -0.2902
     41 C          54.0485   88.8292   -5.2185 C.3     1  UNL1        0.0862
     42 H          53.6795   90.8082   -4.8707 H       1  UNL1        0.1237
     43 O          63.9030   96.1054   -3.0625 O.3     1  UNL1       -0.4701
     44 C          64.7368   95.3857   -4.0807 C.3     1  UNL1        0.2525
     45 O          59.3462   89.6346    8.2275 O.3     1  UNL1       -0.3493
     46 C          59.4789   88.2166    8.6983 C.3     1  UNL1        0.1634
     47 C          60.3156   87.9014    9.9027 C.3     1  UNL1        0.1207
     48 N          61.7575   87.5231    9.7361 N.pl3   1  UNL1       -0.3159
     49 H          62.4021   88.1811    9.3886 H       1  UNL1        0.1483
     50 C          63.7544   86.7859   13.7008 C.ar    1  UNL1        0.0850
     51 C          63.0888   87.0317   12.3793 C.ar    1  UNL1        0.0220
     52 C          62.8830   85.8964   11.4206 C.ar    1  UNL1        0.0505
     53 C          62.2173   86.1422   10.0990 C.ar    1  UNL1        0.1317
     54 N          62.0115   85.0070    9.1404 N.ar    1  UNL1       -0.2092
     55 C          62.4713   83.6262    9.5033 C.ar    1  UNL1        0.2000
     56 N          63.1370   83.3804   10.8249 N.ar    1  UNL1       -0.2238
     57 C          63.3428   84.5156   11.7835 C.ar    1  UNL1        0.0888
     58 C          64.0084   84.2699   13.1051 C.ar    1  UNL1        0.0574
     59 C          64.2143   85.4050   14.0637 C.ar    1  UNL1        0.1535
     60 C          63.8240   89.3375   14.1851 C.2     1  UNL1        0.2443
     61 O          63.4818   89.6189   12.7520 O.2     1  UNL1       -0.2730
     62 N          63.9603   87.9211   14.6595 N.am    1  UNL1       -0.2802
     63 H          64.1848   87.7365   15.6001 H       1  UNL1        0.1550
     64 C          66.0153   91.7359   13.8759 C.2     1  UNL1        0.2438
     65 O          66.0417   90.7374   12.7568 O.2     1  UNL1       -0.2731
     66 N          65.0371   91.5751   15.0016 N.am    1  UNL1       -0.2717
     67 C          64.8944   92.4885   16.1830 C.3     1  UNL1        0.0939
     68 C          63.7989   91.9505   17.0551 C.3     1  UNL1        0.0237
     69 C          63.2646   90.7047   16.4129 C.3     1  UNL1        0.0310
     70 C          64.0298   90.4727   15.1438 C.3     1  UNL1        0.1521
     71 C          66.9671   92.8952   13.8693 C.3     1  UNL1        0.1487
     72 C          66.3904   93.9489   11.5656 C.2     1  UNL1        0.2370
     73 O          66.4046   92.5862   10.9388 O.2     1  UNL1       -0.2737
     74 N          66.6716   94.1034   13.0309 N.am    1  UNL1       -0.2973
     75 H          66.6623   94.9978   13.4422 H       1  UNL1        0.1499
     76 C          66.0949   95.1570   10.7271 C.3     1  UNL1        0.1316
     77 C          65.5750   96.4081   11.3710 C.3     1  UNL1        0.0270
     78 C          67.4899   95.8330    8.6421 C.3     1  UNL1        0.0862
     79 N          66.3193   95.1141    9.2446 N.3     1  UNL1       -0.2902
     80 H          66.4145   94.1311    8.9895 H       1  UNL1        0.1237
     81 C          68.2143   92.8463   14.7011 C.3     1  UNL1        0.0250
     82 C          67.5974   93.7985   15.6822 C.3     1  UNL1        0.0021
     83 C          68.8313   91.8941   13.7200 C.3     1  UNL1        0.0021
     84 C          69.4616   92.7974   15.5329 C.3     1  UNL1        0.0021
     85 O          64.8799   85.1593   15.3853 O.3     1  UNL1       -0.4701
     86 C          64.1311   85.4107   16.6605 C.3     1  UNL1        0.2525
@<TRIPOS>BOND
     1    78    79    1
     2    79    76    1
     3    76    77    1
     4    76    72    1
     5    72    73    2
     6    72    74   am
     7    71    74    1
     8    71    64    1
     9    64    65    2
    10    64    66   am
    11    66    67    1
    12    67    68    1
    13    68    69    1
    14    69    70    1
    15    70    60    1
    16    60    61    2
    17    60    62   am
    18    62    50    1
    19    50    51   ar
    20    51    52   ar
    21    52    53   ar
    22    53    48    1
    23    48    47    1
    24    47    46    1
    25    46    45    1
    26    45     1    1
    27     1     2    1
    28     2     3    1
    29     3     4    1
    30     4     5    1
    31     5     6    1
    32     6     8    1
    33     8     9   ar
    34     9    10   ar
    35    10    11   ar
    36    11    12   ar
    37    12    13   ar
    38    13    14   ar
    39    14    43    1
    40    43    44    1
    41    14    15   ar
    42    15    18    1
    43    18    19   am
    44    19    20    2
    45    22    19    1
    46    22    23    1
    47    23    24    1
    48    24    25    1
    49    25    26    1
    50    26    27   am
    51    27    28    2
    52    27    29    1
    53    29    34    1
    54    34    35   am
    55    35    36    2
    56    35    38    1
    57    38    39    1
    58    38    40    1
    59    40    41    1
    60    29    30    1
    61    30    31    1
    62    30    32    1
    63    30    33    1
    64    15    16   ar
    65    16    17   ar
    66    53    54   ar
    67    54    55   ar
    68    55    56   ar
    69    56    57   ar
    70    57    58   ar
    71    58    59   ar
    72    59    85    1
    73    85    86    1
    74    71    81    1
    75    81    82    1
    76    81    83    1
    77    81    84    1
    78    70    66    1
    79    59    50   ar
    80    57    52   ar
    81    17     8   ar
    82    17    12   ar
    83    26    22    1
    84    79    80    1
    85    74    75    1
    86    62    63    1
    87    48    49    1
    88     6     7    1
    89    18    21    1
    90    34    37    1
    91    40    42    1
