@<TRIPOS>MOLECULE
*****
 33 37 0 0 0
SMALL
GASTEIGER

@<TRIPOS>ATOM
      1 C          62.9811   90.9201   11.6166 C.3     1  UNL1        0.0749
      2 C          64.2647   91.6929   11.5438 C.3     1  UNL1        0.0444
      3 C          65.1457   91.7992   12.7531 C.ar    1  UNL1       -0.0101
      4 C          64.7432   91.1328   14.0352 C.ar    1  UNL1       -0.0091
      5 C          65.6243   91.2392   15.2446 C.ar    1  UNL1       -0.0032
      6 C          66.9078   92.0119   15.1717 C.ar    1  UNL1        0.0010
      7 C          67.3103   92.6784   13.8896 C.ar    1  UNL1        0.0142
      8 C          66.4293   92.5720   12.6803 C.ar    1  UNL1        0.0436
      9 C          63.4597   90.3600   14.1081 C.3     1  UNL1        0.0954
     10 N          62.5786   90.2537   12.8988 N.3     1  UNL1       -0.2934
     11 H          61.6720   90.6412   13.1600 H       1  UNL1        0.1236
     12 N          66.8318   93.2384   11.3981 N.pl3   1  UNL1       -0.3050
     13 C          67.6013   92.4716   10.3637 C.3     1  UNL1        0.1079
     14 C          68.0038   93.1380    9.0816 C.3     1  UNL1        0.0902
     15 N          67.6368   94.5713    8.8339 N.3     1  UNL1       -0.2968
     16 C          66.8673   95.3380    9.8683 C.3     1  UNL1        0.0604
     17 C          66.1513   96.4730   10.5382 C.3     1  UNL1        0.0175
     18 C          67.0212   96.3986    8.8188 C.3     1  UNL1        0.0175
     19 C          66.4648   94.6716   11.1504 C.3     1  UNL1        0.1051
     20 H          67.0800   94.5892    7.9794 H       1  UNL1        0.1233
     21 C          62.1000   90.8137   10.4073 C.3     1  UNL1        0.0886
     22 C          59.6689   90.5632   11.2887 C.3     1  UNL1        0.0899
     23 N          60.8178   90.0387   10.4794 N.3     1  UNL1       -0.2667
     24 C          60.6845   88.7392    9.7421 C.3     1  UNL1        0.0978
     25 C          59.8933   88.6768    8.4693 C.3     1  UNL1        0.0224
     26 C          59.7599   87.3773    7.7321 C.3     1  UNL1        0.0065
     27 C          60.4177   86.1402    8.2677 C.3     1  UNL1        0.0277
     28 C          61.2090   86.2026    9.5405 C.ar    1  UNL1       -0.0073
     29 C          61.8668   84.9655   10.0761 C.ar    1  UNL1       -0.0015
     30 C          62.6580   85.0280   11.3489 C.ar    1  UNL1        0.0203
     31 C          62.7913   86.3275   12.0862 C.ar    1  UNL1        0.0985
     32 N          62.1335   87.5645   11.5506 N.ar    1  UNL1       -0.2471
     33 C          61.3423   87.5021   10.2778 C.ar    1  UNL1        0.0695
@<TRIPOS>BOND
     1    22    23    1
     2    23    21    1
     3     1    21    1
     4     1     2    1
     5     2     3    1
     6     3     4   ar
     7     4     5   ar
     8     5     6   ar
     9     6     7   ar
    10     7     8   ar
    11     8    12    1
    12    12    13    1
    13    13    14    1
    14    14    15    1
    15    15    16    1
    16    16    17    1
    17    16    18    1
    18    16    19    1
    19     4     9    1
    20     9    10    1
    21    24    23    1
    22    24    25    1
    23    25    26    1
    24    26    27    1
    25    27    28    1
    26    28    29   ar
    27    29    30   ar
    28    30    31   ar
    29    31    32   ar
    30    32    33   ar
    31    10     1    1
    32    33    24    1
    33     8     3   ar
    34    19    12    1
    35    33    28   ar
    36    15    20    1
    37    10    11    1
@<TRIPOS>MOLECULE
*****
 33 37 0 0 0
SMALL
GASTEIGER

@<TRIPOS>ATOM
      1 C          63.1469   90.0577   11.9646 C.3     1  UNL1        0.0749
      2 C          64.1824   91.1425   11.9372 C.3     1  UNL1        0.0444
      3 C          64.7980   91.6241   13.2175 C.ar    1  UNL1       -0.0101
      4 C          64.3781   91.0208   14.5250 C.ar    1  UNL1       -0.0091
      5 C          64.9938   91.5024   15.8053 C.ar    1  UNL1       -0.0032
      6 C          66.0293   92.5872   15.7780 C.ar    1  UNL1        0.0010
      7 C          66.4492   93.1905   14.4705 C.ar    1  UNL1        0.0142
      8 C          65.8336   92.7090   13.1902 C.ar    1  UNL1        0.0436
      9 C          63.3426   89.9360   14.5524 C.3     1  UNL1        0.0954
     10 N          62.7270   89.4544   13.2721 N.3     1  UNL1       -0.2934
     11 H          61.7212   89.6023   13.3552 H       1  UNL1        0.1236
     12 N          66.2535   93.3123   11.8826 N.pl3   1  UNL1       -0.3050
     13 C          65.7473   94.6671   11.4848 C.3     1  UNL1        0.1079
     14 C          66.1671   95.2704   10.1772 C.3     1  UNL1        0.0902
     15 N          67.0933   94.5188    9.2675 N.3     1  UNL1       -0.2968
     16 C          67.5994   93.1641    9.6654 C.3     1  UNL1        0.0604
     17 C          68.3409   91.8617    9.6014 C.3     1  UNL1        0.0175
     18 C          68.2768   93.3151    8.3356 C.3     1  UNL1        0.0175
     19 C          67.1795   92.5608   10.9729 C.3     1  UNL1        0.1051
     20 H          67.9127   95.1100    9.1278 H       1  UNL1        0.1233
     21 C          62.5312   89.5761   10.6843 C.3     1  UNL1        0.0886
     22 C          60.2210   88.5278   11.2448 C.3     1  UNL1        0.0899
     23 N          61.6096   88.3926   10.6939 N.3     1  UNL1       -0.2667
     24 C          62.0767   87.0740   10.1526 C.3     1  UNL1        0.0978
     25 C          61.9381   86.7722    8.6898 C.3     1  UNL1        0.0224
     26 C          62.4052   85.4536    8.1485 C.3     1  UNL1        0.0065
     27 C          63.0107   84.4367    9.0699 C.3     1  UNL1        0.0277
     28 C          63.1493   84.7384   10.5328 C.ar    1  UNL1       -0.0073
     29 C          63.7548   83.7214   11.4542 C.ar    1  UNL1       -0.0015
     30 C          63.8933   84.0232   12.9170 C.ar    1  UNL1        0.0203
     31 C          63.4263   85.3418   13.4583 C.ar    1  UNL1        0.0985
     32 N          62.8208   86.3588   12.5369 N.ar    1  UNL1       -0.2471
     33 C          62.6822   86.0570   11.0741 C.ar    1  UNL1        0.0695
@<TRIPOS>BOND
     1    22    23    1
     2    23    21    1
     3     1    21    1
     4     1     2    1
     5     2     3    1
     6     3     4   ar
     7     4     5   ar
     8     5     6   ar
     9     6     7   ar
    10     7     8   ar
    11     8    12    1
    12    12    13    1
    13    13    14    1
    14    14    15    1
    15    15    16    1
    16    16    17    1
    17    16    18    1
    18    16    19    1
    19     4     9    1
    20     9    10    1
    21    24    23    1
    22    24    25    1
    23    25    26    1
    24    26    27    1
    25    27    28    1
    26    28    29   ar
    27    29    30   ar
    28    30    31   ar
    29    31    32   ar
    30    32    33   ar
    31    10     1    1
    32    33    24    1
    33     8     3   ar
    34    19    12    1
    35    33    28   ar
    36    15    20    1
    37    10    11    1
@<TRIPOS>MOLECULE
*****
 33 37 0 0 0
SMALL
GASTEIGER

@<TRIPOS>ATOM
      1 C          63.2061   90.8750   12.4214 C.3     1  UNL1        0.0749
      2 C          64.4326   91.7053   12.1839 C.3     1  UNL1        0.0444
      3 C          65.3326   92.0588   13.3306 C.ar    1  UNL1       -0.0101
      4 C          65.0061   91.5821   14.7148 C.ar    1  UNL1       -0.0091
      5 C          65.9062   91.9357   15.8616 C.ar    1  UNL1       -0.0032
      6 C          67.1327   92.7659   15.6240 C.ar    1  UNL1        0.0010
      7 C          67.4591   93.2426   14.2397 C.ar    1  UNL1        0.0142
      8 C          66.5591   92.8891   13.0930 C.ar    1  UNL1        0.0436
      9 C          63.7797   90.7518   14.9524 C.3     1  UNL1        0.0954
     10 N          62.8797   90.3983   13.8057 N.3     1  UNL1       -0.2934
     11 H          61.9554   90.7649   14.0330 H       1  UNL1        0.1236
     12 N          66.8855   93.3658   11.7088 N.pl3   1  UNL1       -0.3050
     13 C          67.6484   92.4784   10.7703 C.3     1  UNL1        0.1079
     14 C          67.9748   92.9551    9.3861 C.3     1  UNL1        0.0902
     15 N          67.5384   94.3193    8.9403 N.3     1  UNL1       -0.2968
     16 C          66.7756   95.2066    9.8787 C.3     1  UNL1        0.0604
     17 C          66.0371   96.4040   10.3992 C.3     1  UNL1        0.0175
     18 C          66.8456   96.0992    8.6752 C.3     1  UNL1        0.0175
     19 C          66.4492   94.7299   11.2629 C.3     1  UNL1        0.1051
     20 H          66.9503   94.1861    8.1176 H       1  UNL1        0.1233
     21 C          62.3060   90.5215   11.2747 C.3     1  UNL1        0.0886
     22 C          59.9725   89.8145   12.1719 C.3     1  UNL1        0.0899
     23 N          61.2433   89.4775   11.4497 N.3     1  UNL1       -0.2667
     24 C          61.4513   88.0965   10.9024 C.3     1  UNL1        0.0978
     25 C          62.3405   87.1291   11.6259 C.3     1  UNL1        0.0224
     26 C          62.5485   85.7481   11.0786 C.3     1  UNL1        0.0065
     27 C          61.8673   85.3344    9.8079 C.3     1  UNL1        0.0277
     28 C          60.9780   86.3018    9.0844 C.ar    1  UNL1       -0.0073
     29 C          60.2967   85.8881    7.8137 C.ar    1  UNL1       -0.0015
     30 C          59.4074   86.8554    7.0903 C.ar    1  UNL1        0.0203
     31 C          59.1995   88.2365    7.6375 C.ar    1  UNL1        0.0985
     32 N          59.8807   88.6501    8.9082 N.ar    1  UNL1       -0.2471
     33 C          60.7700   87.6828    9.6317 C.ar    1  UNL1        0.0695
@<TRIPOS>BOND
     1    22    23    1
     2    23    21    1
     3     1    21    1
     4     1     2    1
     5     2     3    1
     6     3     4   ar
     7     4     5   ar
     8     5     6   ar
     9     6     7   ar
    10     7     8   ar
    11     8    12    1
    12    12    13    1
    13    13    14    1
    14    14    15    1
    15    15    16    1
    16    16    17    1
    17    16    18    1
    18    16    19    1
    19     4     9    1
    20     9    10    1
    21    24    23    1
    22    24    25    1
    23    25    26    1
    24    26    27    1
    25    27    28    1
    26    28    29   ar
    27    29    30   ar
    28    30    31   ar
    29    31    32   ar
    30    32    33   ar
    31    10     1    1
    32    33    24    1
    33     8     3   ar
    34    19    12    1
    35    33    28   ar
    36    15    20    1
    37    10    11    1
@<TRIPOS>MOLECULE
*****
 33 37 0 0 0
SMALL
GASTEIGER

@<TRIPOS>ATOM
      1 C          64.3759   86.1882   14.7048 C.3     1  UNL1        0.0749
      2 C          63.7364   85.7185   13.4319 C.3     1  UNL1        0.0444
      3 C          63.2831   84.2947   13.3012 C.ar    1  UNL1       -0.0101
      4 C          63.4694   83.3405   14.4435 C.ar    1  UNL1       -0.0091
      5 C          63.0161   81.9165   14.3128 C.ar    1  UNL1       -0.0032
      6 C          62.3766   81.4468   13.0399 C.ar    1  UNL1        0.0010
      7 C          62.1903   82.4010   11.8976 C.ar    1  UNL1        0.0142
      8 C          62.6435   83.8249   12.0282 C.ar    1  UNL1        0.0436
      9 C          64.1089   83.8101   15.7164 C.3     1  UNL1        0.0954
     10 N          64.5622   85.2340   15.8471 N.3     1  UNL1       -0.2934
     11 H          65.5617   85.2075   16.0486 H       1  UNL1        0.1236
     12 N          62.4573   84.7791   10.8860 N.pl3   1  UNL1       -0.3050
     13 C          63.2367   84.5923    9.6180 C.3     1  UNL1        0.1079
     14 C          63.0504   85.5465    8.4757 C.3     1  UNL1        0.0902
     15 N          62.0847   86.6875    8.6014 N.3     1  UNL1       -0.2968
     16 C          61.3054   86.8742    9.8694 C.3     1  UNL1        0.0604
     17 C          60.3456   87.4634   10.8601 C.3     1  UNL1        0.0175
     18 C          60.7858   88.0330    9.0712 C.3     1  UNL1        0.0175
     19 C          61.4917   85.9200   11.0116 C.3     1  UNL1        0.1051
     20 H          61.4033   86.5807    7.8500 H       1  UNL1        0.1233
     21 C          64.8292   87.6121   14.8355 C.3     1  UNL1        0.0886
     22 C          62.8306   88.9510   15.8169 C.3     1  UNL1        0.0899
     23 N          63.8343   88.7291   14.7244 N.3     1  UNL1       -0.2667
     24 C          63.8429   89.6243   13.5208 C.3     1  UNL1        0.0978
     25 C          63.0028   89.2829   12.3261 C.3     1  UNL1        0.0224
     26 C          63.0115   90.1781   11.1225 C.3     1  UNL1        0.0065
     27 C          63.8603   91.4147   11.1137 C.3     1  UNL1        0.0277
     28 C          64.7006   91.7562   12.3085 C.ar    1  UNL1       -0.0073
     29 C          65.5495   92.9928   12.2997 C.ar    1  UNL1       -0.0015
     30 C          66.3896   93.3342   13.4944 C.ar    1  UNL1        0.0203
     31 C          66.3810   92.4391   14.6980 C.ar    1  UNL1        0.0985
     32 N          65.5321   91.2024   14.7068 N.ar    1  UNL1       -0.2471
     33 C          64.6919   90.8610   13.5120 C.ar    1  UNL1        0.0695
@<TRIPOS>BOND
     1    22    23    1
     2    23    21    1
     3     1    21    1
     4     1     2    1
     5     2     3    1
     6     3     4   ar
     7     4     5   ar
     8     5     6   ar
     9     6     7   ar
    10     7     8   ar
    11     8    12    1
    12    12    13    1
    13    13    14    1
    14    14    15    1
    15    15    16    1
    16    16    17    1
    17    16    18    1
    18    16    19    1
    19     4     9    1
    20     9    10    1
    21    24    23    1
    22    24    25    1
    23    25    26    1
    24    26    27    1
    25    27    28    1
    26    28    29   ar
    27    29    30   ar
    28    30    31   ar
    29    31    32   ar
    30    32    33   ar
    31    10     1    1
    32    33    24    1
    33     8     3   ar
    34    19    12    1
    35    33    28   ar
    36    15    20    1
    37    10    11    1
@<TRIPOS>MOLECULE
*****
 33 37 0 0 0
SMALL
GASTEIGER

@<TRIPOS>ATOM
      1 C          62.9817   91.2252   11.0496 C.3     1  UNL1        0.0749
      2 C          63.5086   90.7423   12.3683 C.3     1  UNL1        0.0444
      3 C          64.8318   91.2362   12.8735 C.ar    1  UNL1       -0.0101
      4 C          65.6281   92.2130   12.0599 C.ar    1  UNL1       -0.0091
      5 C          66.9513   92.7069   12.5652 C.ar    1  UNL1       -0.0032
      6 C          67.4782   92.2240   13.8839 C.ar    1  UNL1        0.0010
      7 C          66.6819   91.2473   14.6975 C.ar    1  UNL1        0.0142
      8 C          65.3588   90.7534   14.1923 C.ar    1  UNL1        0.0436
      9 C          65.1012   92.6958   10.7411 C.3     1  UNL1        0.0954
     10 N          63.7780   92.2019   10.2360 N.3     1  UNL1       -0.2934
     11 H          63.9538   91.7594    9.3339 H       1  UNL1        0.1236
     12 N          64.5625   89.7767   15.0059 N.pl3   1  UNL1       -0.3050
     13 C          63.6355   90.2720   16.0762 C.3     1  UNL1        0.1079
     14 C          62.8392   89.2953   16.8898 C.3     1  UNL1        0.0902
     15 N          62.9700   87.8232   16.6331 N.3     1  UNL1       -0.2968
     16 C          63.8969   87.3278   15.5629 C.3     1  UNL1        0.0604
     17 C          64.6365   86.3788   14.6672 C.3     1  UNL1        0.0175
     18 C          63.3575   86.0215   16.0654 C.3     1  UNL1        0.0175
     19 C          64.6932   88.3046   14.7493 C.3     1  UNL1        0.1051
     20 H          62.0383   87.4816   16.3970 H       1  UNL1        0.1233
     21 C          61.6585   90.7312   10.5443 C.3     1  UNL1        0.0886
     22 C          59.9693   89.7951   12.2822 C.3     1  UNL1        0.0899
     23 N          60.9906   89.5637   11.2082 N.3     1  UNL1       -0.2667
     24 C          61.3440   88.1648   10.7981 C.3     1  UNL1        0.0978
     25 C          62.3021   87.3601   11.6253 C.3     1  UNL1        0.0224
     26 C          62.6554   85.9612   11.2152 C.3     1  UNL1        0.0065
     27 C          62.0507   85.3670    9.9779 C.3     1  UNL1        0.0277
     28 C          61.0925   86.1717    9.1505 C.ar    1  UNL1       -0.0073
     29 C          60.4878   85.5775    7.9131 C.ar    1  UNL1       -0.0015
     30 C          59.5297   86.3822    7.0858 C.ar    1  UNL1        0.0203
     31 C          59.1764   87.7811    7.4959 C.ar    1  UNL1        0.0985
     32 N          59.7811   88.3753    8.7333 N.ar    1  UNL1       -0.2471
     33 C          60.7392   87.5706    9.5606 C.ar    1  UNL1        0.0695
@<TRIPOS>BOND
     1    22    23    1
     2    23    21    1
     3     1    21    1
     4     1     2    1
     5     2     3    1
     6     3     4   ar
     7     4     5   ar
     8     5     6   ar
     9     6     7   ar
    10     7     8   ar
    11     8    12    1
    12    12    13    1
    13    13    14    1
    14    14    15    1
    15    15    16    1
    16    16    17    1
    17    16    18    1
    18    16    19    1
    19     4     9    1
    20     9    10    1
    21    24    23    1
    22    24    25    1
    23    25    26    1
    24    26    27    1
    25    27    28    1
    26    28    29   ar
    27    29    30   ar
    28    30    31   ar
    29    31    32   ar
    30    32    33   ar
    31    10     1    1
    32    33    24    1
    33     8     3   ar
    34    19    12    1
    35    33    28   ar
    36    15    20    1
    37    10    11    1
@<TRIPOS>MOLECULE
*****
 33 37 0 0 0
SMALL
GASTEIGER

@<TRIPOS>ATOM
      1 C          60.6944   87.5261   10.8064 C.3     1  UNL1        0.0749
      2 C          61.4942   86.4524   11.4827 C.3     1  UNL1        0.0444
      3 C          62.3190   85.5037   10.6644 C.ar    1  UNL1       -0.0101
      4 C          62.3441   85.6289    9.1698 C.ar    1  UNL1       -0.0091
      5 C          63.1690   84.6802    8.3515 C.ar    1  UNL1       -0.0032
      6 C          63.9688   83.6064    9.0277 C.ar    1  UNL1        0.0010
      7 C          63.9437   83.4813   10.5223 C.ar    1  UNL1        0.0142
      8 C          63.1189   84.4299   11.3406 C.ar    1  UNL1        0.0436
      9 C          61.5443   86.7026    8.4935 C.3     1  UNL1        0.0954
     10 N          60.7194   87.6512    9.3119 N.3     1  UNL1       -0.2934
     11 H          59.7557   87.5546    8.9921 H       1  UNL1        0.1236
     12 N          63.0938   84.3048   12.8352 N.pl3   1  UNL1       -0.3050
     13 C          62.4761   83.0976   13.4765 C.3     1  UNL1        0.1079
     14 C          62.4510   82.9725   14.9710 C.3     1  UNL1        0.0902
     15 N          63.0437   84.0545   15.8243 N.3     1  UNL1       -0.2968
     16 C          63.6613   85.2617   15.1830 C.3     1  UNL1        0.0604
     17 C          64.3538   86.5850   15.0439 C.3     1  UNL1        0.0175
     18 C          63.8767   85.5961   16.6292 C.3     1  UNL1        0.0175
     19 C          63.6864   85.3868   13.6884 C.3     1  UNL1        0.1051
     20 H          63.7706   83.6177   16.3909 H       1  UNL1        0.1233
     21 C          59.8694   88.4748   11.6247 C.3     1  UNL1        0.0886
     22 C          59.0253   90.9310   11.6917 C.3     1  UNL1        0.0899
     23 N          60.1519   89.9472   11.5773 N.3     1  UNL1       -0.2667
     24 C          61.5608   90.4358   11.4155 C.3     1  UNL1        0.0978
     25 C          62.0309   90.9417   10.0840 C.3     1  UNL1        0.0224
     26 C          63.4398   91.4303    9.9221 C.3     1  UNL1        0.0065
     27 C          64.3787   91.4130   11.0918 C.3     1  UNL1        0.0277
     28 C          63.9086   90.9070   12.4234 C.ar    1  UNL1       -0.0073
     29 C          64.8475   90.8896   13.5931 C.ar    1  UNL1       -0.0015
     30 C          64.3774   90.3836   14.9246 C.ar    1  UNL1        0.0203
     31 C          62.9685   89.8950   15.0864 C.ar    1  UNL1        0.0985
     32 N          62.0296   89.9124   13.9167 N.ar    1  UNL1       -0.2471
     33 C          62.4997   90.4184   12.5852 C.ar    1  UNL1        0.0695
@<TRIPOS>BOND
     1    22    23    1
     2    23    21    1
     3     1    21    1
     4     1     2    1
     5     2     3    1
     6     3     4   ar
     7     4     5   ar
     8     5     6   ar
     9     6     7   ar
    10     7     8   ar
    11     8    12    1
    12    12    13    1
    13    13    14    1
    14    14    15    1
    15    15    16    1
    16    16    17    1
    17    16    18    1
    18    16    19    1
    19     4     9    1
    20     9    10    1
    21    24    23    1
    22    24    25    1
    23    25    26    1
    24    26    27    1
    25    27    28    1
    26    28    29   ar
    27    29    30   ar
    28    30    31   ar
    29    31    32   ar
    30    32    33   ar
    31    10     1    1
    32    33    24    1
    33     8     3   ar
    34    19    12    1
    35    33    28   ar
    36    15    20    1
    37    10    11    1
@<TRIPOS>MOLECULE
*****
 33 37 0 0 0
SMALL
GASTEIGER

@<TRIPOS>ATOM
      1 C          62.5363   90.1093   10.7826 C.3     1  UNL1        0.0749
      2 C          63.0836   89.8844   12.1609 C.3     1  UNL1        0.0444
      3 C          64.1838   90.7602   12.6830 C.ar    1  UNL1       -0.0101
      4 C          64.7365   91.8609   11.8268 C.ar    1  UNL1       -0.0091
      5 C          65.8367   92.7367   12.3490 C.ar    1  UNL1       -0.0032
      6 C          66.3841   92.5119   13.7273 C.ar    1  UNL1        0.0010
      7 C          65.8313   91.4112   14.5835 C.ar    1  UNL1        0.0142
      8 C          64.7312   90.5354   14.0614 C.ar    1  UNL1        0.0436
      9 C          64.1891   92.0857   10.4485 C.3     1  UNL1        0.0954
     10 N          63.0890   91.2099    9.9264 N.3     1  UNL1       -0.2934
     11 H          63.4402   90.7722    9.0746 H       1  UNL1        0.1236
     12 N          64.1785   89.4348   14.9176 N.pl3   1  UNL1       -0.3050
     13 C          63.1973   89.7527   16.0068 C.3     1  UNL1        0.1079
     14 C          62.6446   88.6521   16.8630 C.3     1  UNL1        0.0902
     15 N          63.0730   87.2335   16.6300 N.3     1  UNL1       -0.2968
     16 C          64.0541   86.9157   15.5408 C.3     1  UNL1        0.0604
     17 C          64.9514   86.1195   14.6403 C.3     1  UNL1        0.0175
     18 C          63.8130   85.5386   16.0842 C.3     1  UNL1        0.0175
     19 C          64.6068   88.0163   14.6846 C.3     1  UNL1        0.1051
     20 H          62.2273   86.6997   16.4295 H       1  UNL1        0.1233
     21 C          61.4361   89.2335   10.2604 C.3     1  UNL1        0.0886
     22 C          60.3182   87.6599   11.9995 C.3     1  UNL1        0.0899
     23 N          61.2361   87.8604   10.8301 N.3     1  UNL1       -0.2667
     24 C          61.9541   86.6878   10.2306 C.3     1  UNL1        0.0978
     25 C          62.2841   86.6785    8.7674 C.3     1  UNL1        0.0224
     26 C          63.0021   85.5059    8.1679 C.3     1  UNL1        0.0065
     27 C          63.3901   84.3425    9.0316 C.3     1  UNL1        0.0277
     28 C          63.0602   84.3517   10.4948 C.ar    1  UNL1       -0.0073
     29 C          63.4482   83.1884   11.3585 C.ar    1  UNL1       -0.0015
     30 C          63.1182   83.1976   12.8217 C.ar    1  UNL1        0.0203
     31 C          62.4002   84.3702   13.4212 C.ar    1  UNL1        0.0985
     32 N          62.0122   85.5336   12.5576 N.ar    1  UNL1       -0.2471
     33 C          62.3422   85.5243   11.0944 C.ar    1  UNL1        0.0695
@<TRIPOS>BOND
     1    22    23    1
     2    23    21    1
     3     1    21    1
     4     1     2    1
     5     2     3    1
     6     3     4   ar
     7     4     5   ar
     8     5     6   ar
     9     6     7   ar
    10     7     8   ar
    11     8    12    1
    12    12    13    1
    13    13    14    1
    14    14    15    1
    15    15    16    1
    16    16    17    1
    17    16    18    1
    18    16    19    1
    19     4     9    1
    20     9    10    1
    21    24    23    1
    22    24    25    1
    23    25    26    1
    24    26    27    1
    25    27    28    1
    26    28    29   ar
    27    29    30   ar
    28    30    31   ar
    29    31    32   ar
    30    32    33   ar
    31    10     1    1
    32    33    24    1
    33     8     3   ar
    34    19    12    1
    35    33    28   ar
    36    15    20    1
    37    10    11    1
@<TRIPOS>MOLECULE
*****
 33 37 0 0 0
SMALL
GASTEIGER

@<TRIPOS>ATOM
      1 C          63.2004   89.1121   12.6818 C.3     1  UNL1        0.0749
      2 C          62.9776   87.7976   11.9946 C.3     1  UNL1        0.0444
      3 C          61.9230   87.6744   10.9351 C.ar    1  UNL1       -0.0101
      4 C          61.0910   88.8657   10.5629 C.ar    1  UNL1       -0.0091
      5 C          60.0363   88.7425    9.5034 C.ar    1  UNL1       -0.0032
      6 C          59.8136   87.4279    8.8162 C.ar    1  UNL1        0.0010
      7 C          60.6455   86.2366    9.1885 C.ar    1  UNL1        0.0142
      8 C          61.7002   86.3598   10.2479 C.ar    1  UNL1        0.0436
      9 C          61.3138   90.1803   11.2501 C.3     1  UNL1        0.0954
     10 N          62.3684   90.3035   12.3095 N.3     1  UNL1       -0.2934
     11 H          61.8968   90.6107   13.1602 H       1  UNL1        0.1236
     12 N          62.5321   85.1684   10.6201 N.pl3   1  UNL1       -0.3050
     13 C          63.3555   84.4731    9.5767 C.3     1  UNL1        0.1079
     14 C          64.1875   83.2818    9.9489 C.3     1  UNL1        0.0902
     15 N          64.1960   82.7857   11.3646 N.3     1  UNL1       -0.2968
     16 C          63.3726   83.4810   12.4079 C.3     1  UNL1        0.0604
     17 C          62.7649   83.8012   13.7413 C.3     1  UNL1        0.0175
     18 C          63.9935   82.4009   13.2432 C.3     1  UNL1        0.0175
     19 C          62.5407   84.6724   12.0357 C.3     1  UNL1        0.1051
     20 H          65.1645   82.8200   11.6827 H       1  UNL1        0.1233
     21 C          64.2551   89.2354   13.7413 C.3     1  UNL1        0.0886
     22 C          63.1586   90.3545   15.8138 C.3     1  UNL1        0.0899
     23 N          64.1963   90.3613   14.7306 N.3     1  UNL1       -0.2667
     24 C          65.1753   91.4939   14.6369 C.3     1  UNL1        0.0978
     25 C          65.9429   91.9242   15.8517 C.3     1  UNL1        0.0224
     26 C          66.9218   93.0569   15.7580 C.3     1  UNL1        0.0065
     27 C          67.1332   93.7592   14.4496 C.3     1  UNL1        0.0277
     28 C          66.3656   93.3289   13.2347 C.ar    1  UNL1       -0.0073
     29 C          66.5770   94.0312   11.9263 C.ar    1  UNL1       -0.0015
     30 C          65.8094   93.6009   10.7116 C.ar    1  UNL1        0.0203
     31 C          64.8305   92.4683   10.8053 C.ar    1  UNL1        0.0985
     32 N          64.6191   91.7659   12.1137 N.ar    1  UNL1       -0.2471
     33 C          65.3866   92.1963   13.3284 C.ar    1  UNL1        0.0695
@<TRIPOS>BOND
     1    22    23    1
     2    23    21    1
     3     1    21    1
     4     1     2    1
     5     2     3    1
     6     3     4   ar
     7     4     5   ar
     8     5     6   ar
     9     6     7   ar
    10     7     8   ar
    11     8    12    1
    12    12    13    1
    13    13    14    1
    14    14    15    1
    15    15    16    1
    16    16    17    1
    17    16    18    1
    18    16    19    1
    19     4     9    1
    20     9    10    1
    21    24    23    1
    22    24    25    1
    23    25    26    1
    24    26    27    1
    25    27    28    1
    26    28    29   ar
    27    29    30   ar
    28    30    31   ar
    29    31    32   ar
    30    32    33   ar
    31    10     1    1
    32    33    24    1
    33     8     3   ar
    34    19    12    1
    35    33    28   ar
    36    15    20    1
    37    10    11    1
@<TRIPOS>MOLECULE
*****
 33 37 0 0 0
SMALL
GASTEIGER

@<TRIPOS>ATOM
      1 C          63.4564   86.8532   13.6093 C.3     1  UNL1        0.0749
      2 C          62.8589   87.2758   12.3000 C.3     1  UNL1        0.0444
      3 C          62.9803   88.7000   11.8451 C.ar    1  UNL1       -0.0101
      4 C          63.6992   89.7016   12.6996 C.ar    1  UNL1       -0.0091
      5 C          63.8206   91.1258   12.2446 C.ar    1  UNL1       -0.0032
      6 C          63.2231   91.5484   10.9353 C.ar    1  UNL1        0.0010
      7 C          62.5041   90.5469   10.0809 C.ar    1  UNL1        0.0142
      8 C          62.3827   89.1227   10.5358 C.ar    1  UNL1        0.0436
      9 C          64.2968   89.2789   14.0088 C.3     1  UNL1        0.0954
     10 N          64.1753   87.8548   14.4637 N.3     1  UNL1       -0.2934
     11 H          63.6951   87.8729   15.3634 H       1  UNL1        0.1236
     12 N          61.6638   88.1212    9.6814 N.pl3   1  UNL1       -0.3050
     13 C          60.1889   88.2587    9.4445 C.3     1  UNL1        0.1079
     14 C          59.4700   87.2571    8.5901 C.3     1  UNL1        0.0902
     15 N          60.2258   86.1181    7.9725 N.3     1  UNL1       -0.2968
     16 C          61.7006   85.9806    8.2094 C.3     1  UNL1        0.0604
     17 C          63.0937   85.4288    8.1413 C.3     1  UNL1        0.0175
     18 C          61.4655   84.7875    7.3314 C.3     1  UNL1        0.0175
     19 C          62.4196   86.9822    9.0638 C.3     1  UNL1        0.1051
     20 H          60.0952   86.1907    6.9636 H       1  UNL1        0.1233
     21 C          63.3350   85.4290   14.0643 C.3     1  UNL1        0.0886
     22 C          65.6968   84.4055   14.4170 C.3     1  UNL1        0.0899
     23 N          64.3869   84.4287   13.6864 N.3     1  UNL1       -0.2667
     24 C          64.1291   83.4516   12.5779 C.3     1  UNL1        0.0978
     25 C          64.5996   83.7547   11.1863 C.3     1  UNL1        0.0224
     26 C          64.3418   82.7776   10.0778 C.3     1  UNL1        0.0065
     27 C          63.6133   81.4973   10.3610 C.3     1  UNL1        0.0277
     28 C          63.1427   81.1941   11.7527 C.ar    1  UNL1       -0.0073
     29 C          62.4143   79.9138   12.0358 C.ar    1  UNL1       -0.0015
     30 C          61.9437   79.6107   13.4274 C.ar    1  UNL1        0.0203
     31 C          62.2016   80.5878   14.5359 C.ar    1  UNL1        0.0985
     32 N          62.9300   81.8681   14.2527 N.ar    1  UNL1       -0.2471
     33 C          63.4006   82.1712   12.8611 C.ar    1  UNL1        0.0695
@<TRIPOS>BOND
     1    22    23    1
     2    23    21    1
     3     1    21    1
     4     1     2    1
     5     2     3    1
     6     3     4   ar
     7     4     5   ar
     8     5     6   ar
     9     6     7   ar
    10     7     8   ar
    11     8    12    1
    12    12    13    1
    13    13    14    1
    14    14    15    1
    15    15    16    1
    16    16    17    1
    17    16    18    1
    18    16    19    1
    19     4     9    1
    20     9    10    1
    21    24    23    1
    22    24    25    1
    23    25    26    1
    24    26    27    1
    25    27    28    1
    26    28    29   ar
    27    29    30   ar
    28    30    31   ar
    29    31    32   ar
    30    32    33   ar
    31    10     1    1
    32    33    24    1
    33     8     3   ar
    34    19    12    1
    35    33    28   ar
    36    15    20    1
    37    10    11    1
