@<TRIPOS>MOLECULE
*****
 37 41 0 0 0
SMALL
GASTEIGER

@<TRIPOS>ATOM
      1 C          61.2343   88.0166    9.9062 C.3     1  UNL1        0.2246
      2 C          61.1066   86.5468    9.6353 C.2     1  UNL1        0.0436
      3 C          60.1604   86.0584    8.5788 C.2     1  UNL1        0.0288
      4 C          59.3419   87.0397    7.7932 C.2     1  UNL1        0.0896
      5 N          59.4696   88.5095    8.0641 N.am    1  UNL1       -0.1770
      6 C          60.4158   88.9979    9.1206 C.2     1  UNL1        0.2627
      7 O          60.5435   90.4677    9.3916 O.2     1  UNL1       -0.2719
      8 C          63.9436   87.1981   15.1095 C.3     1  UNL1        0.0312
      9 C          64.1997   88.4389   14.3065 C.2     1  UNL1        0.0136
     10 C          65.1471   89.4824   14.8200 C.2     1  UNL1        0.0107
     11 C          65.4031   90.7231   14.0170 C.2     1  UNL1        0.0510
     12 C          64.7118   90.9206   12.7005 C.2     1  UNL1        0.0613
     13 C          63.7644   89.8771   12.1871 C.2     1  UNL1        0.2246
     14 N          62.9437   89.7960   10.9341 N.2     1  UNL1       -0.0378
     15 C          62.1804   88.5051   10.9628 C.2     1  UNL1        0.3605
     16 N          62.5294   87.7883   12.2334 N.2     1  UNL1       -0.0547
     17 C          63.5083   88.6363   12.9901 C.3     1  UNL1        0.2976
     18 N          66.3506   91.7666   14.5305 N.pl3   1  UNL1       -0.3046
     19 C          67.4190   91.3907   15.5139 C.3     1  UNL1        0.1081
     20 C          68.3665   92.4341   16.0274 C.3     1  UNL1        0.0938
     21 N          68.2454   93.8535   15.5575 N.3     1  UNL1       -0.2686
     22 C          69.1927   94.8969   16.0709 C.3     1  UNL1        0.0897
     23 C          67.1769   94.2294   14.5741 C.3     1  UNL1        0.0938
     24 C          66.2295   93.1859   14.0606 C.3     1  UNL1        0.1081
     25 N          61.9250   85.5654   10.4209 N.pl3   1  UNL1       -0.3329
     26 H          61.7393   85.4238   11.3773 H       1  UNL1        0.1466
     27 C          63.0263   84.7998    9.7493 C.3     1  UNL1        0.1211
     28 C          63.6843   83.6542   10.4595 C.3     1  UNL1        0.1522
     29 O          64.6953   82.8088    9.7430 O.3     1  UNL1       -0.3783
     30 H          64.8057   83.1355    8.8364 H       1  UNL1        0.2109
     31 C          63.3315   83.3539   11.8861 C.ar    1  UNL1        0.0067
     32 C          63.9130   84.1825   12.9929 C.ar    1  UNL1       -0.0018
     33 C          63.5602   83.8823   14.4196 C.ar    1  UNL1        0.0006
     34 C          62.6258   82.7533   14.7394 C.ar    1  UNL1        0.0114
     35 C          62.0443   81.9246   13.6326 C.ar    1  UNL1        0.0574
     36 CL         61.1099   80.7957   13.9525 Cl      1  UNL1       -0.0823
     37 C          62.3971   82.2249   12.2060 C.ar    1  UNL1        0.0095
@<TRIPOS>BOND
     1     8     9    1
     2     9    10    2
     3    10    11    1
     4    11    18    1
     5    18    19    1
     6    19    20    1
     7    20    21    1
     8    21    22    1
     9    21    23    1
    10    23    24    1
    11    11    12    2
    12    12    13    1
    13    13    14    2
    14    14    15    1
    15    15     1    1
    16     1     2    1
    17     2    25    1
    18    25    27    1
    19    27    28    1
    20    28    29    1
    21    28    31    1
    22    31    32   ar
    23    32    33   ar
    24    33    34   ar
    25    34    35   ar
    26    35    36    1
    27    35    37   ar
    28     2     3    2
    29     3     4    1
    30     4     5    2
    31     5     6    1
    32     6     7    2
    33    15    16    2
    34    16    17    1
    35    17     9    1
    36    24    18    1
    37    17    13    1
    38     6     1    1
    39    37    31   ar
    40    25    26    1
    41    29    30    1
@<TRIPOS>MOLECULE
*****
 37 41 0 0 0
SMALL
GASTEIGER

@<TRIPOS>ATOM
      1 C          65.1495   91.5718   13.5453 C.3     1  UNL1        0.2246
      2 C          64.9383   92.0273   12.1319 C.2     1  UNL1        0.0436
      3 C          65.3855   93.3957   11.7102 C.2     1  UNL1        0.0288
      4 C          66.0439   94.3084   12.7019 C.2     1  UNL1        0.0896
      5 N          66.2551   93.8528   14.1153 N.am    1  UNL1       -0.1770
      6 C          65.8079   92.4845   14.5370 C.2     1  UNL1        0.2627
      7 O          66.0191   92.0290   15.9504 O.2     1  UNL1       -0.2719
      8 C          63.0410   87.9530   17.7337 C.3     1  UNL1        0.0312
      9 C          63.3340   87.4330   16.3575 C.2     1  UNL1        0.0136
     10 C          63.0933   85.9881   16.0347 C.2     1  UNL1        0.0107
     11 C          63.3863   85.4681   14.6587 C.2     1  UNL1        0.0510
     12 C          63.9201   86.3931   13.6052 C.2     1  UNL1        0.0613
     13 C          64.1608   87.8380   13.9281 C.2     1  UNL1        0.2246
     14 N          64.6766   88.9786   13.1016 N.2     1  UNL1       -0.0378
     15 C          64.7024   90.2035   13.9671 C.2     1  UNL1        0.3605
     16 N          64.2025   89.8199   15.3283 N.2     1  UNL1       -0.0547
     17 C          63.8678   88.3580   15.3042 C.3     1  UNL1        0.2976
     18 N          63.1455   84.0231   14.3358 N.pl3   1  UNL1       -0.3046
     19 C          61.9346   83.3247   14.8799 C.3     1  UNL1        0.1081
     20 C          61.6939   81.8798   14.5571 C.3     1  UNL1        0.0938
     21 N          62.6640   81.1333   13.6903 N.3     1  UNL1       -0.2686
     22 C          62.4234   79.6884   13.3674 C.3     1  UNL1        0.0897
     23 C          63.8749   81.8317   13.1462 C.3     1  UNL1        0.0938
     24 C          64.1157   83.2766   13.4690 C.3     1  UNL1        0.1081
     25 N          64.2800   91.1147   11.1401 N.pl3   1  UNL1       -0.3329
     26 H          64.8236   90.4827   10.6163 H       1  UNL1        0.1466
     27 C          62.7934   91.1648   10.9464 C.3     1  UNL1        0.1211
     28 C          61.9392   90.0170   11.3968 C.3     1  UNL1        0.1522
     29 O          61.5001   89.9253   12.8281 O.3     1  UNL1       -0.3783
     30 H          61.8521   90.6814   13.3234 H       1  UNL1        0.2109
     31 C          61.5243   88.9608   10.4158 C.ar    1  UNL1        0.0067
     32 C          60.2696   89.1348    9.6124 C.ar    1  UNL1       -0.0018
     33 C          59.8547   88.0786    8.6314 C.ar    1  UNL1        0.0006
     34 C          60.6943   86.8483    8.4539 C.ar    1  UNL1        0.0114
     35 C          61.9490   86.6744    9.2574 C.ar    1  UNL1        0.0574
     36 CL         62.7886   85.4442    9.0799 Cl      1  UNL1       -0.0823
     37 C          62.3639   87.7306   10.2383 C.ar    1  UNL1        0.0095
@<TRIPOS>BOND
     1     8     9    1
     2     9    10    2
     3    10    11    1
     4    11    18    1
     5    18    19    1
     6    19    20    1
     7    20    21    1
     8    21    22    1
     9    21    23    1
    10    23    24    1
    11    11    12    2
    12    12    13    1
    13    13    14    2
    14    14    15    1
    15    15     1    1
    16     1     2    1
    17     2    25    1
    18    25    27    1
    19    27    28    1
    20    28    29    1
    21    28    31    1
    22    31    32   ar
    23    32    33   ar
    24    33    34   ar
    25    34    35   ar
    26    35    36    1
    27    35    37   ar
    28     2     3    2
    29     3     4    1
    30     4     5    2
    31     5     6    1
    32     6     7    2
    33    15    16    2
    34    16    17    1
    35    17     9    1
    36    24    18    1
    37    17    13    1
    38     6     1    1
    39    37    31   ar
    40    25    26    1
    41    29    30    1
@<TRIPOS>MOLECULE
*****
 37 41 0 0 0
SMALL
GASTEIGER

@<TRIPOS>ATOM
      1 C          63.1446   83.4522   13.5870 C.3     1  UNL1        0.2246
      2 C          62.5990   83.1111   12.2320 C.2     1  UNL1        0.0436
      3 C          62.3494   81.6788   11.8628 C.2     1  UNL1        0.0288
      4 C          62.6453   80.5876   12.8485 C.2     1  UNL1        0.0896
      5 N          63.1908   80.9287   14.2035 N.am    1  UNL1       -0.1770
      6 C          63.4405   82.3610   14.5727 C.2     1  UNL1        0.2627
      7 O          63.9860   82.7021   15.9277 O.2     1  UNL1       -0.2719
      8 C          62.8560   87.8236   17.5735 C.3     1  UNL1        0.0312
      9 C          63.4253   88.0762   16.2089 C.2     1  UNL1        0.0136
     10 C          63.9262   89.4428   15.8464 C.2     1  UNL1        0.0107
     11 C          64.4954   89.6954   14.4819 C.2     1  UNL1        0.0510
     12 C          64.5639   88.5813   13.4797 C.2     1  UNL1        0.0613
     13 C          64.0630   87.2147   13.8422 C.2     1  UNL1        0.2246
     14 N          64.0015   85.9306   13.0693 N.2     1  UNL1       -0.0378
     15 C          63.3942   84.8844   13.9562 C.2     1  UNL1        0.3605
     16 N          63.0804   85.5219   15.2773 N.2     1  UNL1       -0.0547
     17 C          63.4937   86.9621   15.2068 C.3     1  UNL1        0.2976
     18 N          64.9963   91.0621   14.1193 N.pl3   1  UNL1       -0.3046
     19 C          65.6943   91.9022   15.1475 C.3     1  UNL1        0.1081
     20 C          66.1952   93.2688   14.7850 C.3     1  UNL1        0.0938
     21 N          65.9981   93.7954   13.3944 N.3     1  UNL1       -0.2686
     22 C          66.4989   95.1620   13.0318 C.3     1  UNL1        0.0897
     23 C          65.3001   92.9553   12.3662 C.3     1  UNL1        0.0938
     24 C          64.7992   91.5887   12.7287 C.3     1  UNL1        0.1081
     25 N          62.3031   84.2023   11.2462 N.pl3   1  UNL1       -0.3329
     26 H          61.5245   84.7896   11.3810 H       1  UNL1        0.1466
     27 C          63.1933   84.3986   10.0550 C.3     1  UNL1        0.1211
     28 C          62.6943   85.1608    8.8633 C.3     1  UNL1        0.1522
     29 O          63.0219   84.6862    7.4786 O.3     1  UNL1       -0.3783
     30 H          63.5592   83.8803    7.5316 H       1  UNL1        0.2109
     31 C          61.8677   86.3975    9.0564 C.ar    1  UNL1        0.0067
     32 C          60.4522   86.4383    8.5620 C.ar    1  UNL1       -0.0018
     33 C          59.6256   87.6750    8.7551 C.ar    1  UNL1        0.0006
     34 C          60.2146   88.8710    9.4426 C.ar    1  UNL1        0.0114
     35 C          61.6302   88.8302    9.9370 C.ar    1  UNL1        0.0574
     36 CL         62.2192   90.0262   10.6245 Cl      1  UNL1       -0.0823
     37 C          62.4567   87.5935    9.7439 C.ar    1  UNL1        0.0095
@<TRIPOS>BOND
     1     8     9    1
     2     9    10    2
     3    10    11    1
     4    11    18    1
     5    18    19    1
     6    19    20    1
     7    20    21    1
     8    21    22    1
     9    21    23    1
    10    23    24    1
    11    11    12    2
    12    12    13    1
    13    13    14    2
    14    14    15    1
    15    15     1    1
    16     1     2    1
    17     2    25    1
    18    25    27    1
    19    27    28    1
    20    28    29    1
    21    28    31    1
    22    31    32   ar
    23    32    33   ar
    24    33    34   ar
    25    34    35   ar
    26    35    36    1
    27    35    37   ar
    28     2     3    2
    29     3     4    1
    30     4     5    2
    31     5     6    1
    32     6     7    2
    33    15    16    2
    34    16    17    1
    35    17     9    1
    36    24    18    1
    37    17    13    1
    38     6     1    1
    39    37    31   ar
    40    25    26    1
    41    29    30    1
@<TRIPOS>MOLECULE
*****
 37 41 0 0 0
SMALL
GASTEIGER

@<TRIPOS>ATOM
      1 C          63.0288   84.8155   13.0901 C.3     1  UNL1        0.2246
      2 C          63.7054   85.7325   14.0655 C.2     1  UNL1        0.0436
      3 C          64.2231   85.1937   15.3662 C.2     1  UNL1        0.0288
      4 C          64.0642   83.7381   15.6915 C.2     1  UNL1        0.0896
      5 N          63.3877   82.8211   14.7161 N.am    1  UNL1       -0.1770
      6 C          62.8700   83.3598   13.4154 C.2     1  UNL1        0.2627
      7 O          62.1935   82.4428   12.4400 O.2     1  UNL1       -0.2719
      8 C          62.6388   84.4225    7.1928 C.3     1  UNL1        0.0312
      9 C          61.9525   85.5360    7.9271 C.2     1  UNL1        0.0136
     10 C          61.1610   86.5592    7.1678 C.2     1  UNL1        0.0107
     11 C          60.4748   87.6726    7.9020 C.2     1  UNL1        0.0510
     12 C          60.5799   87.7629    9.3957 C.2     1  UNL1        0.0613
     13 C          61.3714   86.7397   10.1549 C.2     1  UNL1        0.2246
     14 N          61.6516   86.5716   11.6189 N.2     1  UNL1       -0.0378
     15 C          62.5111   85.3541   11.7894 C.2     1  UNL1        0.3605
     16 N          62.7621   84.7699   10.4308 N.2     1  UNL1       -0.0547
     17 C          62.0577   85.6262    9.4207 C.3     1  UNL1        0.2976
     18 N          59.6832   88.6959    7.1426 N.pl3   1  UNL1       -0.3046
     19 C          58.1841   88.6449    7.1550 C.3     1  UNL1        0.1081
     20 C          57.3926   89.6681    6.3957 C.3     1  UNL1        0.0938
     21 N          58.1002   90.7423    5.6240 N.3     1  UNL1       -0.2686
     22 C          57.3088   91.7655    4.8647 C.3     1  UNL1        0.0897
     23 C          59.5993   90.7933    5.6117 C.3     1  UNL1        0.0938
     24 C          60.3908   89.7701    6.3710 C.3     1  UNL1        0.1081
     25 N          63.8643   87.1881   13.7403 N.pl3   1  UNL1       -0.3329
     26 H          63.6669   87.5140   12.8325 H       1  UNL1        0.1466
     27 C          64.3239   88.1472   14.7981 C.3     1  UNL1        0.1211
     28 C          63.8506   89.5704   14.7768 C.3     1  UNL1        0.1522
     29 O          62.9822   90.0886   15.8847 O.3     1  UNL1       -0.3783
     30 H          62.8225   89.3808   16.5284 H       1  UNL1        0.2109
     31 C          64.2457   90.4753   13.6477 C.ar    1  UNL1        0.0067
     32 C          65.4179   91.3985   13.8014 C.ar    1  UNL1       -0.0018
     33 C          65.8130   92.3034   12.6723 C.ar    1  UNL1        0.0006
     34 C          65.0359   92.2853   11.3894 C.ar    1  UNL1        0.0114
     35 C          63.8636   91.3622   11.2358 C.ar    1  UNL1        0.0574
     36 CL         63.0865   91.3441    9.9529 Cl      1  UNL1       -0.0823
     37 C          63.4685   90.4572   12.3649 C.ar    1  UNL1        0.0095
@<TRIPOS>BOND
     1     8     9    1
     2     9    10    2
     3    10    11    1
     4    11    18    1
     5    18    19    1
     6    19    20    1
     7    20    21    1
     8    21    22    1
     9    21    23    1
    10    23    24    1
    11    11    12    2
    12    12    13    1
    13    13    14    2
    14    14    15    1
    15    15     1    1
    16     1     2    1
    17     2    25    1
    18    25    27    1
    19    27    28    1
    20    28    29    1
    21    28    31    1
    22    31    32   ar
    23    32    33   ar
    24    33    34   ar
    25    34    35   ar
    26    35    36    1
    27    35    37   ar
    28     2     3    2
    29     3     4    1
    30     4     5    2
    31     5     6    1
    32     6     7    2
    33    15    16    2
    34    16    17    1
    35    17     9    1
    36    24    18    1
    37    17    13    1
    38     6     1    1
    39    37    31   ar
    40    25    26    1
    41    29    30    1
@<TRIPOS>MOLECULE
*****
 37 41 0 0 0
SMALL
GASTEIGER

@<TRIPOS>ATOM
      1 C          62.9842   83.8637   11.9977 C.3     1  UNL1        0.2246
      2 C          62.7778   83.6444   13.4672 C.2     1  UNL1        0.0436
      3 C          63.2768   82.3870   14.1152 C.2     1  UNL1        0.0288
      4 C          63.9821   81.3488   13.2938 C.2     1  UNL1        0.0896
      5 N          64.1885   81.5681   11.8243 N.am    1  UNL1       -0.1770
      6 C          63.6895   82.8255   11.1763 C.2     1  UNL1        0.2627
      7 O          63.8959   83.0448    9.7069 O.2     1  UNL1       -0.2719
      8 C          62.3214   89.7487   12.1052 C.3     1  UNL1        0.0312
      9 C          61.8034   88.9469   10.9482 C.2     1  UNL1        0.0136
     10 C          61.1123   89.6349    9.8085 C.2     1  UNL1        0.0107
     11 C          60.5943   88.8331    8.6515 C.2     1  UNL1        0.0510
     12 C          60.7673   87.3431    8.6342 C.2     1  UNL1        0.0613
     13 C          61.4584   86.6551    9.7739 C.2     1  UNL1        0.2246
     14 N          61.7729   85.2115   10.0327 N.2     1  UNL1       -0.0378
     15 C          62.4852   85.1211   11.3496 C.2     1  UNL1        0.3605
     16 N          62.6111   86.5089   11.9048 N.2     1  UNL1       -0.0547
     17 C          61.9765   87.4570   10.9309 C.3     1  UNL1        0.2976
     18 N          59.9031   89.5211    7.5117 N.pl3   1  UNL1       -0.3046
     19 C          60.6796   90.4221    6.5977 C.3     1  UNL1        0.1081
     20 C          59.9885   91.1101    5.4580 C.3     1  UNL1        0.0938
     21 N          58.5210   90.8972    5.2323 N.3     1  UNL1       -0.2686
     22 C          57.8298   91.5852    4.0926 C.3     1  UNL1        0.0897
     23 C          57.7445   89.9962    6.1463 C.3     1  UNL1        0.0938
     24 C          58.4356   89.3082    7.2860 C.3     1  UNL1        0.1081
     25 N          62.0724   84.6825   14.2886 N.pl3   1  UNL1       -0.3329
     26 H          61.1998   85.0322   13.9963 H       1  UNL1        0.1466
     27 C          62.6966   85.1879   15.5555 C.3     1  UNL1        0.1211
     28 C          63.9492   86.0112   15.4979 C.3     1  UNL1        0.1522
     29 O          65.2774   85.3429   15.2999 O.3     1  UNL1       -0.3783
     30 H          65.1495   84.3841   15.2280 H       1  UNL1        0.2109
     31 C          63.8735   87.5026   15.6384 C.ar    1  UNL1        0.0067
     32 C          63.1243   88.1108   16.7868 C.ar    1  UNL1       -0.0018
     33 C          63.0486   89.6023   16.9272 C.ar    1  UNL1        0.0006
     34 C          63.7221   90.4857   15.9193 C.ar    1  UNL1        0.0114
     35 C          64.4713   89.8775   14.7709 C.ar    1  UNL1        0.0574
     36 CL         65.1449   90.7609   13.7630 Cl      1  UNL1       -0.0823
     37 C          64.5470   88.3860   14.6304 C.ar    1  UNL1        0.0095
@<TRIPOS>BOND
     1     8     9    1
     2     9    10    2
     3    10    11    1
     4    11    18    1
     5    18    19    1
     6    19    20    1
     7    20    21    1
     8    21    22    1
     9    21    23    1
    10    23    24    1
    11    11    12    2
    12    12    13    1
    13    13    14    2
    14    14    15    1
    15    15     1    1
    16     1     2    1
    17     2    25    1
    18    25    27    1
    19    27    28    1
    20    28    29    1
    21    28    31    1
    22    31    32   ar
    23    32    33   ar
    24    33    34   ar
    25    34    35   ar
    26    35    36    1
    27    35    37   ar
    28     2     3    2
    29     3     4    1
    30     4     5    2
    31     5     6    1
    32     6     7    2
    33    15    16    2
    34    16    17    1
    35    17     9    1
    36    24    18    1
    37    17    13    1
    38     6     1    1
    39    37    31   ar
    40    25    26    1
    41    29    30    1
