@<TRIPOS>MOLECULE
*****
 27 29 0 0 0
SMALL
GASTEIGER

@<TRIPOS>ATOM
      1 C          63.6921   84.1056   11.9256 C.ar    1  UNL1        0.0223
      2 C          62.9895   85.3679   12.3291 C.ar    1  UNL1        0.0139
      3 C          62.3553   86.2396   11.2861 C.ar    1  UNL1        0.0482
      4 C          62.4238   85.8490    9.8394 C.ar    1  UNL1        0.0169
      5 C          63.1265   84.5867    9.4359 C.ar    1  UNL1        0.0306
      6 C          63.7606   83.7150   10.4790 C.ar    1  UNL1        0.1375
      7 F          64.4633   82.4527   10.0755 F       1  UNL1       -0.2045
      8 N          61.6526   87.5019   11.6896 N.pl3   1  UNL1       -0.3125
      9 H          60.8057   87.4556   12.1894 H       1  UNL1        0.1522
     10 C          62.2404   88.8348   11.3316 C.ar    1  UNL1        0.0513
     11 C          61.8660   89.4966   10.0387 C.ar    1  UNL1        0.0353
     12 C          62.4538   90.8294    9.6807 C.ar    1  UNL1        0.1001
     13 N          63.4160   91.5003   10.6157 N.ar    1  UNL1       -0.2437
     14 C          63.7904   90.8384   11.9086 C.ar    1  UNL1        0.0833
     15 C          64.7525   91.5093   12.8435 C.ar    1  UNL1        0.0305
     16 C          65.1269   90.8474   14.1365 C.ar    1  UNL1        0.0592
     17 CL         66.0891   91.5183   15.0714 Cl      1  UNL1       -0.0822
     18 C          64.5391   89.5146   14.4945 C.ar    1  UNL1        0.0115
     19 C          63.5770   88.8437   13.5595 C.ar    1  UNL1        0.0036
     20 C          63.2026   89.5056   12.2665 C.ar    1  UNL1        0.0312
     21 C          64.3263   83.2339   12.9687 C.3     1  UNL1        0.0979
     22 N          63.9588   81.7824   13.0576 N.3     1  UNL1       -0.2958
     23 H          64.0607   81.3948   12.1196 H       1  UNL1        0.1235
     24 C          62.5450   80.2990   12.5095 C.3     1  UNL1        0.0158
     25 C          62.5985   81.3817   13.5463 C.3     1  UNL1        0.0423
     26 C          62.6519   82.4644   14.5830 C.3     1  UNL1        0.0158
     27 C          61.2380   80.9809   14.0349 C.3     1  UNL1        0.0158
@<TRIPOS>BOND
     1    24    25    1
     2    25    26    1
     3    25    27    1
     4    25    22    1
     5    22    21    1
     6    21     1    1
     7     1     2   ar
     8     2     3   ar
     9     3     8    1
    10     8    10    1
    11    10    11   ar
    12    11    12   ar
    13    12    13   ar
    14    13    14   ar
    15    14    15   ar
    16    15    16   ar
    17    16    17    1
    18    16    18   ar
    19    18    19   ar
    20    19    20   ar
    21     3     4   ar
    22     4     5   ar
    23     5     6   ar
    24     6     7    1
    25     6     1   ar
    26    20    10   ar
    27    20    14   ar
    28    22    23    1
    29     8     9    1
@<TRIPOS>MOLECULE
*****
 27 29 0 0 0
SMALL
GASTEIGER

@<TRIPOS>ATOM
      1 C          64.0110   90.5096   13.1047 C.ar    1  UNL1        0.0223
      2 C          63.2143   89.2470   12.9592 C.ar    1  UNL1        0.0139
      3 C          62.5355   88.9342   11.6587 C.ar    1  UNL1        0.0482
      4 C          62.6534   89.8840   10.5036 C.ar    1  UNL1        0.0169
      5 C          63.4501   91.1466   10.6492 C.ar    1  UNL1        0.0306
      6 C          64.1289   91.4594   11.9498 C.ar    1  UNL1        0.1375
      7 F          64.9257   92.7219   12.0953 F       1  UNL1       -0.2045
      8 N          61.7388   87.6717   11.5131 N.pl3   1  UNL1       -0.3125
      9 H          60.8697   87.5829   11.9670 H       1  UNL1        0.1522
     10 C          62.2663   86.5443   10.6759 C.ar    1  UNL1        0.0513
     11 C          62.3482   86.6915    9.1855 C.ar    1  UNL1        0.0353
     12 C          62.8756   85.5641    8.3484 C.ar    1  UNL1        0.1001
     13 N          63.3212   84.2896    9.0017 N.ar    1  UNL1       -0.2437
     14 C          63.2394   84.1423   10.4922 C.ar    1  UNL1        0.0833
     15 C          63.6850   82.8678   11.1456 C.ar    1  UNL1        0.0305
     16 C          63.6031   82.7206   12.6361 C.ar    1  UNL1        0.0592
     17 CL         64.0487   81.4460   13.2895 Cl      1  UNL1       -0.0822
     18 C          63.0756   83.8480   13.4733 C.ar    1  UNL1        0.0115
     19 C          62.6300   85.1225   12.8199 C.ar    1  UNL1        0.0036
     20 C          62.7119   85.2697   11.3293 C.ar    1  UNL1        0.0312
     21 C          64.6898   90.8223   14.4053 C.3     1  UNL1        0.0979
     22 N          66.1871   90.8793   14.4752 N.3     1  UNL1       -0.2958
     23 H          66.4748   90.2033   15.1827 H       1  UNL1        0.1235
     24 C          65.8764   92.4217   15.8980 C.3     1  UNL1        0.0158
     25 C          66.8738   92.1712   14.8060 C.3     1  UNL1        0.0423
     26 C          67.8712   91.9207   13.7140 C.3     1  UNL1        0.0158
     27 C          67.5605   93.4631   15.1369 C.3     1  UNL1        0.0158
@<TRIPOS>BOND
     1    24    25    1
     2    25    26    1
     3    25    27    1
     4    25    22    1
     5    22    21    1
     6    21     1    1
     7     1     2   ar
     8     2     3   ar
     9     3     8    1
    10     8    10    1
    11    10    11   ar
    12    11    12   ar
    13    12    13   ar
    14    13    14   ar
    15    14    15   ar
    16    15    16   ar
    17    16    17    1
    18    16    18   ar
    19    18    19   ar
    20    19    20   ar
    21     3     4   ar
    22     4     5   ar
    23     5     6   ar
    24     6     7    1
    25     6     1   ar
    26    20    10   ar
    27    20    14   ar
    28    22    23    1
    29     8     9    1
@<TRIPOS>MOLECULE
*****
 27 29 0 0 0
SMALL
GASTEIGER

@<TRIPOS>ATOM
      1 C          61.2345   86.4525    9.8619 C.ar    1  UNL1        0.0223
      2 C          62.0869   85.5848   10.7397 C.ar    1  UNL1        0.0139
      3 C          63.0291   84.5925   10.1254 C.ar    1  UNL1        0.0482
      4 C          63.1190   84.4678    8.6333 C.ar    1  UNL1        0.0169
      5 C          62.2666   85.3354    7.7555 C.ar    1  UNL1        0.0306
      6 C          61.3243   86.3278    8.3698 C.ar    1  UNL1        0.1375
      7 F          60.4719   87.1955    7.4920 F       1  UNL1       -0.2045
      8 N          63.8815   83.7248   11.0032 N.pl3   1  UNL1       -0.3125
      9 H          64.8238   83.5625   10.7689 H       1  UNL1        0.1522
     10 C          63.2981   83.1044   12.2381 C.ar    1  UNL1        0.0513
     11 C          62.7189   81.7219   12.1809 C.ar    1  UNL1        0.0353
     12 C          62.1355   81.1015   13.4157 C.ar    1  UNL1        0.1001
     13 N          62.1313   81.8636   14.7077 N.ar    1  UNL1       -0.2437
     14 C          62.7104   83.2461   14.7648 C.ar    1  UNL1        0.0833
     15 C          62.7062   84.0082   16.0568 C.ar    1  UNL1        0.0305
     16 C          63.2853   85.3907   16.1140 C.ar    1  UNL1        0.0592
     17 CL         63.2811   86.1528   17.4059 Cl      1  UNL1       -0.0822
     18 C          63.8687   86.0111   14.8791 C.ar    1  UNL1        0.0115
     19 C          63.8730   85.2490   13.5872 C.ar    1  UNL1        0.0036
     20 C          63.2938   83.8665   13.5300 C.ar    1  UNL1        0.0312
     21 C          60.2922   87.4449   10.4762 C.3     1  UNL1        0.0979
     22 N          60.8009   88.4460   11.4706 N.3     1  UNL1       -0.2958
     23 H          59.9823   88.8624   11.9145 H       1  UNL1        0.1235
     24 C          62.7768   89.0874   11.9000 C.3     1  UNL1        0.0158
     25 C          61.6704   89.5802   11.0152 C.3     1  UNL1        0.0423
     26 C          60.5640   90.0731   10.1303 C.3     1  UNL1        0.0158
     27 C          62.5400   90.7145   10.5597 C.3     1  UNL1        0.0158
@<TRIPOS>BOND
     1    24    25    1
     2    25    26    1
     3    25    27    1
     4    25    22    1
     5    22    21    1
     6    21     1    1
     7     1     2   ar
     8     2     3   ar
     9     3     8    1
    10     8    10    1
    11    10    11   ar
    12    11    12   ar
    13    12    13   ar
    14    13    14   ar
    15    14    15   ar
    16    15    16   ar
    17    16    17    1
    18    16    18   ar
    19    18    19   ar
    20    19    20   ar
    21     3     4   ar
    22     4     5   ar
    23     5     6   ar
    24     6     7    1
    25     6     1   ar
    26    20    10   ar
    27    20    14   ar
    28    22    23    1
    29     8     9    1
@<TRIPOS>MOLECULE
*****
 27 29 0 0 0
SMALL
GASTEIGER

@<TRIPOS>ATOM
      1 C          64.0089   86.4080   15.2332 C.ar    1  UNL1        0.0223
      2 C          64.3709   87.7410   14.6485 C.ar    1  UNL1        0.0139
      3 C          63.9723   89.0029   15.3547 C.ar    1  UNL1        0.0482
      4 C          63.2117   88.9318   16.6457 C.ar    1  UNL1        0.0169
      5 C          62.8498   87.5987   17.2304 C.ar    1  UNL1        0.0306
      6 C          63.2484   86.3368   16.5241 C.ar    1  UNL1        0.1375
      7 F          62.8864   85.0037   17.1088 F       1  UNL1       -0.2045
      8 N          64.3342   90.3360   14.7700 N.pl3   1  UNL1       -0.3125
      9 H          64.7583   91.0223   15.3343 H       1  UNL1        0.1522
     10 C          64.0500   90.6235   13.3254 C.ar    1  UNL1        0.0513
     11 C          63.0453   89.7962   12.5797 C.ar    1  UNL1        0.0353
     12 C          62.7611   90.0837   11.1352 C.ar    1  UNL1        0.1001
     13 N          63.4817   91.1984   10.4365 N.ar    1  UNL1       -0.2437
     14 C          64.4864   92.0257   11.1822 C.ar    1  UNL1        0.0833
     15 C          65.2070   93.1404   10.4835 C.ar    1  UNL1        0.0305
     16 C          66.2117   93.9676   11.2293 C.ar    1  UNL1        0.0592
     17 CL         66.9323   95.0823   10.5305 Cl      1  UNL1       -0.0822
     18 C          66.4959   93.6801   12.6738 C.ar    1  UNL1        0.0115
     19 C          65.7753   92.5654   13.3725 C.ar    1  UNL1        0.0036
     20 C          64.7706   91.7382   12.6267 C.ar    1  UNL1        0.0312
     21 C          64.4075   85.1460   14.5269 C.3     1  UNL1        0.0979
     22 N          63.3668   84.3052   13.8490 N.3     1  UNL1       -0.2958
     23 H          63.3080   83.4312   14.3717 H       1  UNL1        0.1235
     24 C          62.6801   85.1103   12.0105 C.3     1  UNL1        0.0158
     25 C          63.5257   83.9356   12.4040 C.3     1  UNL1        0.0423
     26 C          64.3714   82.7609   12.7975 C.3     1  UNL1        0.0158
     27 C          63.6847   83.5661   10.9589 C.3     1  UNL1        0.0158
@<TRIPOS>BOND
     1    24    25    1
     2    25    26    1
     3    25    27    1
     4    25    22    1
     5    22    21    1
     6    21     1    1
     7     1     2   ar
     8     2     3   ar
     9     3     8    1
    10     8    10    1
    11    10    11   ar
    12    11    12   ar
    13    12    13   ar
    14    13    14   ar
    15    14    15   ar
    16    15    16   ar
    17    16    17    1
    18    16    18   ar
    19    18    19   ar
    20    19    20   ar
    21     3     4   ar
    22     4     5   ar
    23     5     6   ar
    24     6     7    1
    25     6     1   ar
    26    20    10   ar
    27    20    14   ar
    28    22    23    1
    29     8     9    1
@<TRIPOS>MOLECULE
*****
 27 29 0 0 0
SMALL
GASTEIGER

@<TRIPOS>ATOM
      1 C          61.7563   87.2111    9.9848 C.ar    1  UNL1        0.0223
      2 C          62.3171   88.1076   11.0486 C.ar    1  UNL1        0.0139
      3 C          61.8165   89.5151   11.1840 C.ar    1  UNL1        0.0482
      4 C          60.7549   90.0261   10.2555 C.ar    1  UNL1        0.0169
      5 C          60.1941   89.1296    9.1916 C.ar    1  UNL1        0.0306
      6 C          60.6948   87.7220    9.0563 C.ar    1  UNL1        0.1375
      7 F          60.1339   86.8255    7.9925 F       1  UNL1       -0.2045
      8 N          62.3773   90.4116   12.2478 N.pl3   1  UNL1       -0.3125
      9 H          61.9450   90.4575   13.1311 H       1  UNL1        0.1522
     10 C          63.5969   91.2382   11.9657 C.ar    1  UNL1        0.0513
     11 C          63.8843   91.6979   10.5672 C.ar    1  UNL1        0.0353
     12 C          65.1039   92.5244   10.2852 C.ar    1  UNL1        0.1001
     13 N          66.0359   92.8913   11.4017 N.ar    1  UNL1       -0.2437
     14 C          65.7485   92.4315   12.8003 C.ar    1  UNL1        0.0833
     15 C          66.6805   92.7983   13.9168 C.ar    1  UNL1        0.0305
     16 C          66.3931   92.3386   15.3154 C.ar    1  UNL1        0.0592
     17 CL         67.3252   92.7054   16.4319 Cl      1  UNL1       -0.0822
     18 C          65.1735   91.5120   15.5974 C.ar    1  UNL1        0.0115
     19 C          64.2415   91.1452   14.4809 C.ar    1  UNL1        0.0036
     20 C          64.5290   91.6050   13.0823 C.ar    1  UNL1        0.0312
     21 C          62.2570   85.8036    9.8495 C.3     1  UNL1        0.0979
     22 N          62.3390   84.9174   11.0569 N.3     1  UNL1       -0.2958
     23 H          62.5543   85.5205   11.8508 H       1  UNL1        0.1235
     24 C          62.9743   83.5264   12.5271 C.3     1  UNL1        0.0158
     25 C          63.3244   83.7870   11.0920 C.3     1  UNL1        0.0423
     26 C          63.6745   84.0476    9.6570 C.3     1  UNL1        0.0158
     27 C          64.3098   82.6566   11.1272 C.3     1  UNL1        0.0158
@<TRIPOS>BOND
     1    24    25    1
     2    25    26    1
     3    25    27    1
     4    25    22    1
     5    22    21    1
     6    21     1    1
     7     1     2   ar
     8     2     3   ar
     9     3     8    1
    10     8    10    1
    11    10    11   ar
    12    11    12   ar
    13    12    13   ar
    14    13    14   ar
    15    14    15   ar
    16    15    16   ar
    17    16    17    1
    18    16    18   ar
    19    18    19   ar
    20    19    20   ar
    21     3     4   ar
    22     4     5   ar
    23     5     6   ar
    24     6     7    1
    25     6     1   ar
    26    20    10   ar
    27    20    14   ar
    28    22    23    1
    29     8     9    1
@<TRIPOS>MOLECULE
*****
 27 29 0 0 0
SMALL
GASTEIGER

@<TRIPOS>ATOM
      1 C          63.7875   86.7115   15.6465 C.ar    1  UNL1        0.0223
      2 C          64.2321   87.6172   14.5365 C.ar    1  UNL1        0.0139
      3 C          64.0618   89.1018   14.6661 C.ar    1  UNL1        0.0482
      4 C          63.4468   89.6808   15.9058 C.ar    1  UNL1        0.0169
      5 C          63.0022   88.7752   17.0158 C.ar    1  UNL1        0.0306
      6 C          63.1726   87.2905   16.8861 C.ar    1  UNL1        0.1375
      7 F          62.7279   86.3848   17.9961 F       1  UNL1       -0.2045
      8 N          64.5064   90.0075   13.5562 N.pl3   1  UNL1       -0.3125
      9 H          64.3026   89.7768   12.6210 H       1  UNL1        0.1522
     10 C          65.2616   91.2648   13.8710 C.ar    1  UNL1        0.0513
     11 C          65.8068   91.4866   15.2506 C.ar    1  UNL1        0.0353
     12 C          66.5620   92.7438   15.5654 C.ar    1  UNL1        0.1001
     13 N          66.7720   93.7792   14.5005 N.ar    1  UNL1       -0.2437
     14 C          66.2268   93.5573   13.1209 C.ar    1  UNL1        0.0833
     15 C          66.4367   94.5927   12.0560 C.ar    1  UNL1        0.0305
     16 C          65.8915   94.3708   10.6764 C.ar    1  UNL1        0.0592
     17 CL         66.1015   95.4062    9.6115 Cl      1  UNL1       -0.0822
     18 C          65.1363   93.1136   10.3615 C.ar    1  UNL1        0.0115
     19 C          64.9263   92.0782   11.4264 C.ar    1  UNL1        0.0036
     20 C          65.4716   92.3001   12.8061 C.ar    1  UNL1        0.0312
     21 C          63.9578   85.2268   15.5168 C.3     1  UNL1        0.0979
     22 N          62.9900   84.4300   14.6932 N.3     1  UNL1       -0.2958
     23 H          62.2445   84.1312   15.3219 H       1  UNL1        0.1235
     24 C          64.6157   83.9796   13.4070 C.3     1  UNL1        0.0158
     25 C          63.4571   83.2059   13.9628 C.3     1  UNL1        0.0423
     26 C          62.2986   82.4322   14.5187 C.3     1  UNL1        0.0158
     27 C          63.9243   81.9818   13.2324 C.3     1  UNL1        0.0158
@<TRIPOS>BOND
     1    24    25    1
     2    25    26    1
     3    25    27    1
     4    25    22    1
     5    22    21    1
     6    21     1    1
     7     1     2   ar
     8     2     3   ar
     9     3     8    1
    10     8    10    1
    11    10    11   ar
    12    11    12   ar
    13    12    13   ar
    14    13    14   ar
    15    14    15   ar
    16    15    16   ar
    17    16    17    1
    18    16    18   ar
    19    18    19   ar
    20    19    20   ar
    21     3     4   ar
    22     4     5   ar
    23     5     6   ar
    24     6     7    1
    25     6     1   ar
    26    20    10   ar
    27    20    14   ar
    28    22    23    1
    29     8     9    1
@<TRIPOS>MOLECULE
*****
 27 29 0 0 0
SMALL
GASTEIGER

@<TRIPOS>ATOM
      1 C          64.0118   87.0701   14.9039 C.ar    1  UNL1        0.0223
      2 C          63.8486   88.3892   14.2086 C.ar    1  UNL1        0.0139
      3 C          63.3375   89.5783   14.9666 C.ar    1  UNL1        0.0482
      4 C          62.9896   89.4485   16.4199 C.ar    1  UNL1        0.0169
      5 C          63.1528   88.1294   17.1152 C.ar    1  UNL1        0.0306
      6 C          63.6639   86.9402   16.3571 C.ar    1  UNL1        0.1375
      7 F          63.8271   85.6211   17.0524 F       1  UNL1       -0.2045
      8 N          63.1744   90.8974   14.2713 N.pl3   1  UNL1       -0.3125
      9 H          62.3347   91.4028   14.3651 H       1  UNL1        0.1522
     10 C          64.2906   91.4466   13.4331 C.ar    1  UNL1        0.0513
     11 C          64.1873   91.4216   11.9369 C.ar    1  UNL1        0.0353
     12 C          65.3035   91.9707   11.0988 C.ar    1  UNL1        0.1001
     13 N          66.5231   92.5448   11.7570 N.ar    1  UNL1       -0.2437
     14 C          66.6264   92.5699   13.2532 C.ar    1  UNL1        0.0833
     15 C          67.8459   93.1440   13.9113 C.ar    1  UNL1        0.0305
     16 C          67.9492   93.1690   15.4075 C.ar    1  UNL1        0.0592
     17 CL         69.1687   93.7432   16.0656 Cl      1  UNL1       -0.0822
     18 C          66.8329   92.6199   16.2456 C.ar    1  UNL1        0.0115
     19 C          65.6134   92.0457   15.5875 C.ar    1  UNL1        0.0036
     20 C          65.5102   92.0207   14.0912 C.ar    1  UNL1        0.0312
     21 C          64.5229   85.8809   14.1458 C.3     1  UNL1        0.0979
     22 N          63.5983   84.7460   13.8186 N.3     1  UNL1       -0.2958
     23 H          63.8742   83.9616   14.4093 H       1  UNL1        0.1235
     24 C          62.6118   85.3591   12.0436 C.3     1  UNL1        0.0158
     25 C          63.5193   84.2239   12.4146 C.3     1  UNL1        0.0423
     26 C          64.4268   83.0888   12.7857 C.3     1  UNL1        0.0158
     27 C          63.4403   83.7019   11.0106 C.3     1  UNL1        0.0158
@<TRIPOS>BOND
     1    24    25    1
     2    25    26    1
     3    25    27    1
     4    25    22    1
     5    22    21    1
     6    21     1    1
     7     1     2   ar
     8     2     3   ar
     9     3     8    1
    10     8    10    1
    11    10    11   ar
    12    11    12   ar
    13    12    13   ar
    14    13    14   ar
    15    14    15   ar
    16    15    16   ar
    17    16    17    1
    18    16    18   ar
    19    18    19   ar
    20    19    20   ar
    21     3     4   ar
    22     4     5   ar
    23     5     6   ar
    24     6     7    1
    25     6     1   ar
    26    20    10   ar
    27    20    14   ar
    28    22    23    1
    29     8     9    1
@<TRIPOS>MOLECULE
*****
 27 29 0 0 0
SMALL
GASTEIGER

@<TRIPOS>ATOM
      1 C          62.7194   85.4196   11.0147 C.ar    1  UNL1        0.0223
      2 C          62.4685   86.5917   11.9165 C.ar    1  UNL1        0.0139
      3 C          62.1076   87.9247   11.3311 C.ar    1  UNL1        0.0482
      4 C          61.9976   88.0858    9.8438 C.ar    1  UNL1        0.0169
      5 C          62.2485   86.9137    8.9420 C.ar    1  UNL1        0.0306
      6 C          62.6094   85.5806    9.5274 C.ar    1  UNL1        0.1375
      7 F          62.8603   84.4086    8.6256 F       1  UNL1       -0.2045
      8 N          61.8567   89.0968   12.2330 N.pl3   1  UNL1       -0.3125
      9 H          60.9423   89.4431   12.3472 H       1  UNL1        0.1522
     10 C          62.9992   89.7411   12.9608 C.ar    1  UNL1        0.0513
     11 C          63.3157   89.3347   14.3696 C.ar    1  UNL1        0.0353
     12 C          64.4581   89.9791   15.0973 C.ar    1  UNL1        0.1001
     13 N          65.2840   91.0299   14.4163 N.ar    1  UNL1       -0.2437
     14 C          64.9674   91.4363   13.0076 C.ar    1  UNL1        0.0833
     15 C          65.7933   92.4871   12.3266 C.ar    1  UNL1        0.0305
     16 C          65.4768   92.8935   10.9179 C.ar    1  UNL1        0.0592
     17 CL         66.3027   93.9443   10.2369 Cl      1  UNL1       -0.0822
     18 C          64.3344   92.2492   10.1901 C.ar    1  UNL1        0.0115
     19 C          63.5085   91.1984   10.8710 C.ar    1  UNL1        0.0036
     20 C          63.8250   90.7919   12.2799 C.ar    1  UNL1        0.0312
     21 C          63.0804   84.0865   11.6001 C.3     1  UNL1        0.0979
     22 N          63.1432   83.9134   13.0887 N.3     1  UNL1       -0.2958
     23 H          64.1302   83.9312   13.3458 H       1  UNL1        0.1235
     24 C          62.4781   82.0259   12.3854 C.3     1  UNL1        0.0158
     25 C          62.5514   82.6920   13.7273 C.3     1  UNL1        0.0423
     26 C          62.6247   83.3581   15.0693 C.3     1  UNL1        0.0158
     27 C          61.9596   81.4705   14.3659 C.3     1  UNL1        0.0158
@<TRIPOS>BOND
     1    24    25    1
     2    25    26    1
     3    25    27    1
     4    25    22    1
     5    22    21    1
     6    21     1    1
     7     1     2   ar
     8     2     3   ar
     9     3     8    1
    10     8    10    1
    11    10    11   ar
    12    11    12   ar
    13    12    13   ar
    14    13    14   ar
    15    14    15   ar
    16    15    16   ar
    17    16    17    1
    18    16    18   ar
    19    18    19   ar
    20    19    20   ar
    21     3     4   ar
    22     4     5   ar
    23     5     6   ar
    24     6     7    1
    25     6     1   ar
    26    20    10   ar
    27    20    14   ar
    28    22    23    1
    29     8     9    1
@<TRIPOS>MOLECULE
*****
 27 29 0 0 0
SMALL
GASTEIGER

@<TRIPOS>ATOM
      1 C          64.1065   86.8966   15.0507 C.ar    1  UNL1        0.0223
      2 C          64.2003   88.3313   14.6228 C.ar    1  UNL1        0.0139
      3 C          63.6666   89.4154   15.5115 C.ar    1  UNL1        0.0482
      4 C          63.0389   89.0649   16.8280 C.ar    1  UNL1        0.0169
      5 C          62.9450   87.6303   17.2559 C.ar    1  UNL1        0.0306
      6 C          63.4788   86.5462   16.3672 C.ar    1  UNL1        0.1375
      7 F          63.3850   85.1116   16.7951 F       1  UNL1       -0.2045
      8 N          63.7604   90.8500   15.0836 N.pl3   1  UNL1       -0.3125
      9 H          63.5842   91.5696   15.7319 H       1  UNL1        0.1522
     10 C          64.1227   91.1882   13.6678 C.ar    1  UNL1        0.0513
     11 C          65.3880   91.9392   13.3763 C.ar    1  UNL1        0.0353
     12 C          65.7502   92.2774   11.9606 C.ar    1  UNL1        0.1001
     13 N          64.8472   91.8646   10.8363 N.ar    1  UNL1       -0.2437
     14 C          63.5819   91.1136   11.1277 C.ar    1  UNL1        0.0833
     15 C          62.6788   90.7008   10.0034 C.ar    1  UNL1        0.0305
     16 C          61.4135   89.9498   10.2949 C.ar    1  UNL1        0.0592
     17 CL         60.5104   89.5370    9.1706 Cl      1  UNL1       -0.0822
     18 C          61.0512   89.6116   11.7107 C.ar    1  UNL1        0.0115
     19 C          61.9543   90.0244   12.8350 C.ar    1  UNL1        0.0036
     20 C          63.2196   90.7754   12.5435 C.ar    1  UNL1        0.0312
     21 C          64.6403   85.8125   14.1620 C.3     1  UNL1        0.0979
     22 N          63.7988   84.6081   13.8598 N.3     1  UNL1       -0.2958
     23 H          64.2220   83.8219   14.3529 H       1  UNL1        0.1235
     24 C          62.7550   85.3850   12.1845 C.3     1  UNL1        0.0158
     25 C          63.5981   84.1708   12.4391 C.3     1  UNL1        0.0423
     26 C          64.4411   82.9566   12.6938 C.3     1  UNL1        0.0158
     27 C          63.3973   83.7335   11.0184 C.3     1  UNL1        0.0158
@<TRIPOS>BOND
     1    24    25    1
     2    25    26    1
     3    25    27    1
     4    25    22    1
     5    22    21    1
     6    21     1    1
     7     1     2   ar
     8     2     3   ar
     9     3     8    1
    10     8    10    1
    11    10    11   ar
    12    11    12   ar
    13    12    13   ar
    14    13    14   ar
    15    14    15   ar
    16    15    16   ar
    17    16    17    1
    18    16    18   ar
    19    18    19   ar
    20    19    20   ar
    21     3     4   ar
    22     4     5   ar
    23     5     6   ar
    24     6     7    1
    25     6     1   ar
    26    20    10   ar
    27    20    14   ar
    28    22    23    1
    29     8     9    1
