@<TRIPOS>MOLECULE
*****
 22 24 0 0 0
SMALL
GASTEIGER

@<TRIPOS>ATOM
      1 C          64.6400   91.6807   12.3141 C.2     1  UNL1       -0.0420
      2 C          63.6668   90.8710   13.1186 C.2     1  UNL1       -0.0239
      3 C          62.6294   90.3277   12.1812 C.ar    1  UNL1       -0.0078
      4 C          61.4253   89.4627   12.4089 C.ar    1  UNL1        0.0002
      5 C          60.5533   89.0717   11.2527 C.ar    1  UNL1        0.0114
      6 C          60.8854   89.5458    9.8689 C.ar    1  UNL1        0.0574
      7 CL         60.0133   89.1547    8.7127 Cl      1  UNL1       -0.0823
      8 C          62.0895   90.4108    9.6412 C.ar    1  UNL1        0.0074
      9 C          62.9615   90.8018   10.7973 C.ar    1  UNL1       -0.0176
     10 C          64.2041   91.6379   10.8795 C.3     1  UNL1        0.0480
     11 C          65.8387   92.4059   12.8501 C.3     1  UNL1        0.0394
     12 C          67.0095   92.6838   11.9547 C.3     1  UNL1        0.0765
     13 C          66.2708   95.1026   11.3600 C.3     1  UNL1        0.0897
     14 N          66.9547   93.8227   10.9801 N.3     1  UNL1       -0.2700
     15 C          67.5838   93.6818    9.6258 C.3     1  UNL1        0.0897
     16 C          63.7214   90.6442   14.6003 C.3     1  UNL1        0.0733
     17 C          63.6926   89.2475   15.1469 C.ar    1  UNL1        0.0849
     18 C          64.4120   88.1455   14.4271 C.ar    1  UNL1        0.0185
     19 C          64.3833   86.7490   14.9736 C.ar    1  UNL1        0.0238
     20 C          63.6352   86.4544   16.2400 C.ar    1  UNL1        0.1222
     21 N          62.9159   87.5564   16.9598 N.ar    1  UNL1       -0.1467
     22 N          62.9446   88.9530   16.4133 N.ar    1  UNL1       -0.1520
@<TRIPOS>BOND
     1    13    14    1
     2    14    15    1
     3    14    12    1
     4    12    11    1
     5    11     1    1
     6     1     2    2
     7     2    16    1
     8    16    17    1
     9    17    18   ar
    10    18    19   ar
    11    19    20   ar
    12    20    21   ar
    13    21    22   ar
    14     2     3    1
    15     3     4   ar
    16     4     5   ar
    17     5     6   ar
    18     6     7    1
    19     6     8   ar
    20     8     9   ar
    21     9    10    1
    22    10     1    1
    23    22    17   ar
    24     9     3   ar
@<TRIPOS>MOLECULE
*****
 22 24 0 0 0
SMALL
GASTEIGER

@<TRIPOS>ATOM
      1 C          65.3264   91.4078   14.1666 C.2     1  UNL1       -0.0420
      2 C          65.1481   92.1149   12.8558 C.2     1  UNL1       -0.0239
      3 C          64.2073   91.3032   12.0154 C.ar    1  UNL1       -0.0078
      4 C          63.6657   91.5086   10.6318 C.ar    1  UNL1        0.0002
      5 C          62.7210   90.5052   10.0396 C.ar    1  UNL1        0.0114
      6 C          62.3178   89.2965   10.8311 C.ar    1  UNL1        0.0574
      7 CL         61.3730   88.2931   10.2389 Cl      1  UNL1       -0.0823
      8 C          62.8594   89.0911   12.2147 C.ar    1  UNL1        0.0074
      9 C          63.8042   90.0945   12.8069 C.ar    1  UNL1       -0.0176
     10 C          64.4958   90.1591   14.1364 C.3     1  UNL1        0.0480
     11 C          66.1845   91.8685   15.3073 C.3     1  UNL1        0.0394
     12 C          67.6429   91.5190   15.3376 C.3     1  UNL1        0.0765
     13 C          69.5532   92.2816   13.7503 C.3     1  UNL1        0.0897
     14 N          68.6669   92.5378   14.9331 N.3     1  UNL1       -0.2700
     15 C          68.8046   93.8126   15.7114 C.3     1  UNL1        0.0897
     16 C          65.7967   93.4068   12.4555 C.3     1  UNL1        0.0733
     17 C          66.7261   93.4465   11.2787 C.ar    1  UNL1        0.0849
     18 C          67.3511   92.1799   10.7736 C.ar    1  UNL1        0.0185
     19 C          68.2804   92.2195    9.5969 C.ar    1  UNL1        0.0238
     20 C          68.5848   93.5257    8.9252 C.ar    1  UNL1        0.1222
     21 N          67.9598   94.7923    9.4303 N.ar    1  UNL1       -0.1467
     22 N          67.0304   94.7527   10.6071 N.ar    1  UNL1       -0.1520
@<TRIPOS>BOND
     1    13    14    1
     2    14    15    1
     3    14    12    1
     4    12    11    1
     5    11     1    1
     6     1     2    2
     7     2    16    1
     8    16    17    1
     9    17    18   ar
    10    18    19   ar
    11    19    20   ar
    12    20    21   ar
    13    21    22   ar
    14     2     3    1
    15     3     4   ar
    16     4     5   ar
    17     5     6   ar
    18     6     7    1
    19     6     8   ar
    20     8     9   ar
    21     9    10    1
    22    10     1    1
    23    22    17   ar
    24     9     3   ar
@<TRIPOS>MOLECULE
*****
 22 24 0 0 0
SMALL
GASTEIGER

@<TRIPOS>ATOM
      1 C          63.6589   90.5304   12.2993 C.2     1  UNL1       -0.0420
      2 C          63.7803   89.1491   12.8715 C.2     1  UNL1       -0.0239
      3 C          62.9777   88.2187   12.0112 C.ar    1  UNL1       -0.0078
      4 C          62.7293   86.7416   12.0904 C.ar    1  UNL1        0.0002
      5 C          61.8634   86.0707   11.0657 C.ar    1  UNL1        0.0114
      6 C          61.2459   86.8769    9.9618 C.ar    1  UNL1        0.0574
      7 CL         60.3800   86.2059    8.9370 Cl      1  UNL1       -0.0823
      8 C          61.4942   88.3540    9.8826 C.ar    1  UNL1        0.0074
      9 C          62.3601   89.0250   10.9073 C.ar    1  UNL1       -0.0176
     10 C          62.7812   90.4536   11.0853 C.3     1  UNL1        0.0480
     11 C          64.3022   91.7706   12.8452 C.3     1  UNL1        0.0394
     12 C          65.4900   92.3675   12.1502 C.3     1  UNL1        0.0765
     13 C          66.5853   93.6999   14.0931 C.3     1  UNL1        0.0897
     14 N          66.1082   93.6303   12.6727 N.3     1  UNL1       -0.2700
     15 C          66.2493   94.8235   11.7748 C.3     1  UNL1        0.0897
     16 C          64.5664   88.7656   14.0901 C.3     1  UNL1        0.0733
     17 C          63.9576   87.8629   15.1219 C.ar    1  UNL1        0.0849
     18 C          64.2958   86.4015   15.1334 C.ar    1  UNL1        0.0185
     19 C          63.6871   85.4989   16.1651 C.ar    1  UNL1        0.0238
     20 C          62.7401   86.0576   17.1855 C.ar    1  UNL1        0.1222
     21 N          62.4020   87.5189   17.1741 N.ar    1  UNL1       -0.1467
     22 N          63.0107   88.4216   16.1423 N.ar    1  UNL1       -0.1520
@<TRIPOS>BOND
     1    13    14    1
     2    14    15    1
     3    14    12    1
     4    12    11    1
     5    11     1    1
     6     1     2    2
     7     2    16    1
     8    16    17    1
     9    17    18   ar
    10    18    19   ar
    11    19    20   ar
    12    20    21   ar
    13    21    22   ar
    14     2     3    1
    15     3     4   ar
    16     4     5   ar
    17     5     6   ar
    18     6     7    1
    19     6     8   ar
    20     8     9   ar
    21     9    10    1
    22    10     1    1
    23    22    17   ar
    24     9     3   ar
@<TRIPOS>MOLECULE
*****
 22 24 0 0 0
SMALL
GASTEIGER

@<TRIPOS>ATOM
      1 C          63.3038   88.2356   12.6708 C.2     1  UNL1       -0.0420
      2 C          62.6143   89.3254   11.9046 C.2     1  UNL1       -0.0239
      3 C          61.8681   88.6921   10.7679 C.ar    1  UNL1       -0.0078
      4 C          61.0102   89.2728    9.6831 C.ar    1  UNL1        0.0002
      5 C          60.3807   88.3724    8.6619 C.ar    1  UNL1        0.0114
      6 C          60.6091   86.8912    8.7255 C.ar    1  UNL1        0.0574
      7 CL         59.9795   85.9908    7.7042 Cl      1  UNL1       -0.0823
      8 C          61.4669   86.3105    9.8103 C.ar    1  UNL1        0.0074
      9 C          62.0965   87.2110   10.8314 C.ar    1  UNL1       -0.0176
     10 C          62.9838   86.9289   12.0075 C.3     1  UNL1        0.0480
     11 C          64.1626   88.4202   13.8867 C.3     1  UNL1        0.0394
     12 C          64.2986   87.3087   14.8846 C.3     1  UNL1        0.0765
     13 C          63.1329   86.0675   16.8470 C.3     1  UNL1        0.0897
     14 N          63.5122   87.3467   16.1614 N.3     1  UNL1       -0.2700
     15 C          63.1051   88.6637   16.7526 C.3     1  UNL1        0.0897
     16 C          62.6625   90.7911   12.2199 C.3     1  UNL1        0.0733
     17 C          63.9565   91.5410   12.1040 C.ar    1  UNL1        0.0849
     18 C          64.5023   91.8903   10.7512 C.ar    1  UNL1        0.0185
     19 C          65.7962   92.6402   10.6353 C.ar    1  UNL1        0.0238
     20 C          66.5442   93.0409   11.8722 C.ar    1  UNL1        0.1222
     21 N          65.9983   92.6916   13.2250 N.ar    1  UNL1       -0.1467
     22 N          64.7045   91.9417   13.3409 N.ar    1  UNL1       -0.1520
@<TRIPOS>BOND
     1    13    14    1
     2    14    15    1
     3    14    12    1
     4    12    11    1
     5    11     1    1
     6     1     2    2
     7     2    16    1
     8    16    17    1
     9    17    18   ar
    10    18    19   ar
    11    19    20   ar
    12    20    21   ar
    13    21    22   ar
    14     2     3    1
    15     3     4   ar
    16     4     5   ar
    17     5     6   ar
    18     6     7    1
    19     6     8   ar
    20     8     9   ar
    21     9    10    1
    22    10     1    1
    23    22    17   ar
    24     9     3   ar
@<TRIPOS>MOLECULE
*****
 22 24 0 0 0
SMALL
GASTEIGER

@<TRIPOS>ATOM
      1 C          63.4095   90.8162   11.3421 C.2     1  UNL1       -0.0420
      2 C          63.3007   89.5036   12.0598 C.2     1  UNL1       -0.0239
      3 C          62.3507   88.6328   11.2922 C.ar    1  UNL1       -0.0078
      4 C          61.8594   87.2348   11.5247 C.ar    1  UNL1        0.0002
      5 C          60.8898   86.6113   10.5650 C.ar    1  UNL1        0.0114
      6 C          60.4114   87.3858    9.3729 C.ar    1  UNL1        0.0574
      7 CL         59.4417   86.7622    8.4132 Cl      1  UNL1       -0.0823
      8 C          60.9027   88.7838    9.1403 C.ar    1  UNL1        0.0074
      9 C          61.8723   89.4073   10.1000 C.ar    1  UNL1       -0.0176
     10 C          62.5267   90.7567   10.1309 C.3     1  UNL1        0.0480
     11 C          64.2530   91.9834   11.7619 C.3     1  UNL1        0.0394
     12 C          65.3045   92.5201   10.8367 C.3     1  UNL1        0.0765
     13 C          66.2966   94.0944   12.6498 C.3     1  UNL1        0.0897
     14 N          66.0679   93.7573   11.2061 N.3     1  UNL1       -0.2700
     15 C          66.6027   94.6575   10.1320 C.3     1  UNL1        0.0897
     16 C          64.0163   89.1276   13.3234 C.3     1  UNL1        0.0733
     17 C          64.2612   90.1612   14.3826 C.ar    1  UNL1        0.0849
     18 C          65.5753   90.8826   14.4369 C.ar    1  UNL1        0.0185
     19 C          65.8203   91.9161   15.4960 C.ar    1  UNL1        0.0238
     20 C          64.7512   92.2283   16.5008 C.ar    1  UNL1        0.1222
     21 N          63.4371   91.5070   16.4464 N.ar    1  UNL1       -0.1467
     22 N          63.1921   90.4734   15.3873 N.ar    1  UNL1       -0.1520
@<TRIPOS>BOND
     1    13    14    1
     2    14    15    1
     3    14    12    1
     4    12    11    1
     5    11     1    1
     6     1     2    2
     7     2    16    1
     8    16    17    1
     9    17    18   ar
    10    18    19   ar
    11    19    20   ar
    12    20    21   ar
    13    21    22   ar
    14     2     3    1
    15     3     4   ar
    16     4     5   ar
    17     5     6   ar
    18     6     7    1
    19     6     8   ar
    20     8     9   ar
    21     9    10    1
    22    10     1    1
    23    22    17   ar
    24     9     3   ar
@<TRIPOS>MOLECULE
*****
 22 24 0 0 0
SMALL
GASTEIGER

@<TRIPOS>ATOM
      1 C          60.5058   87.5390   10.5015 C.2     1  UNL1       -0.0420
      2 C          61.8185   86.8151   10.5537 C.2     1  UNL1       -0.0239
      3 C          61.9795   86.0540    9.2712 C.ar    1  UNL1       -0.0078
      4 C          63.0741   85.1629    8.7636 C.ar    1  UNL1        0.0002
      5 C          62.9554   84.5253    7.4111 C.ar    1  UNL1        0.0114
      6 C          61.7421   84.7787    6.5662 C.ar    1  UNL1        0.0574
      7 CL         61.6235   84.1410    5.2137 Cl      1  UNL1       -0.0823
      8 C          60.6476   85.6699    7.0739 C.ar    1  UNL1        0.0074
      9 C          60.7662   86.3075    8.4264 C.ar    1  UNL1       -0.0176
     10 C          59.8555   87.2253    9.1867 C.3     1  UNL1        0.0480
     11 C          59.9423   88.4217   11.5755 C.3     1  UNL1        0.0394
     12 C          60.3433   89.8653   11.6469 C.3     1  UNL1        0.0765
     13 C          62.4078   90.7032   10.3105 C.3     1  UNL1        0.0897
     14 N          61.7939   90.2440   11.5999 N.3     1  UNL1       -0.2700
     15 C          62.6307   90.1635   12.8422 C.3     1  UNL1        0.0897
     16 C          62.7983   86.8468   11.6891 C.3     1  UNL1        0.0733
     17 C          62.9649   85.6439   12.5697 C.ar    1  UNL1        0.0849
     18 C          62.5804   84.2851   12.0639 C.ar    1  UNL1        0.0185
     19 C          62.7471   83.0822   12.9444 C.ar    1  UNL1        0.0238
     20 C          63.2982   83.2382   14.3307 C.ar    1  UNL1        0.1222
     21 N          63.6827   84.5970   14.8365 N.ar    1  UNL1       -0.1467
     22 N          63.5161   85.7999   13.9560 N.ar    1  UNL1       -0.1520
@<TRIPOS>BOND
     1    13    14    1
     2    14    15    1
     3    14    12    1
     4    12    11    1
     5    11     1    1
     6     1     2    2
     7     2    16    1
     8    16    17    1
     9    17    18   ar
    10    18    19   ar
    11    19    20   ar
    12    20    21   ar
    13    21    22   ar
    14     2     3    1
    15     3     4   ar
    16     4     5   ar
    17     5     6   ar
    18     6     7    1
    19     6     8   ar
    20     8     9   ar
    21     9    10    1
    22    10     1    1
    23    22    17   ar
    24     9     3   ar
@<TRIPOS>MOLECULE
*****
 22 24 0 0 0
SMALL
GASTEIGER

@<TRIPOS>ATOM
      1 C          63.3544   83.9445   12.5538 C.2     1  UNL1       -0.0420
      2 C          63.6494   85.3567   12.9646 C.2     1  UNL1       -0.0239
      3 C          62.9238   86.2739   12.0253 C.ar    1  UNL1       -0.0078
      4 C          62.8440   87.7695   11.9446 C.ar    1  UNL1        0.0002
      5 C          62.0206   88.4199   10.8727 C.ar    1  UNL1        0.0114
      6 C          61.2771   87.5746    9.8814 C.ar    1  UNL1        0.0574
      7 CL         60.4538   88.2250    8.8094 Cl      1  UNL1       -0.0823
      8 C          61.3569   86.0789    9.9621 C.ar    1  UNL1        0.0074
      9 C          62.1802   85.4285   11.0341 C.ar    1  UNL1       -0.0176
     10 C          62.4464   83.9889   11.3607 C.3     1  UNL1        0.0480
     11 C          63.8758   82.7055   13.2194 C.3     1  UNL1        0.0394
     12 C          63.0030   81.9406   14.1697 C.3     1  UNL1        0.0765
     13 C          60.6567   80.8255   14.1313 C.3     1  UNL1        0.0897
     14 N          62.0763   80.8817   13.6501 N.3     1  UNL1       -0.2700
     15 C          62.5693   79.8789   12.6494 C.3     1  UNL1        0.0897
     16 C          64.5177   85.7778   14.1130 C.3     1  UNL1        0.0733
     17 C          63.9069   86.4444   15.3100 C.ar    1  UNL1        0.0849
     18 C          63.3972   85.6155   16.4515 C.ar    1  UNL1        0.0185
     19 C          62.7865   86.2820   17.6484 C.ar    1  UNL1        0.0238
     20 C          62.6855   87.7776   17.7038 C.ar    1  UNL1        0.1222
     21 N          63.1952   88.6066   16.5623 N.ar    1  UNL1       -0.1467
     22 N          63.8059   87.9400   15.3654 N.ar    1  UNL1       -0.1520
@<TRIPOS>BOND
     1    13    14    1
     2    14    15    1
     3    14    12    1
     4    12    11    1
     5    11     1    1
     6     1     2    2
     7     2    16    1
     8    16    17    1
     9    17    18   ar
    10    18    19   ar
    11    19    20   ar
    12    20    21   ar
    13    21    22   ar
    14     2     3    1
    15     3     4   ar
    16     4     5   ar
    17     5     6   ar
    18     6     7    1
    19     6     8   ar
    20     8     9   ar
    21     9    10    1
    22    10     1    1
    23    22    17   ar
    24     9     3   ar
@<TRIPOS>MOLECULE
*****
 22 24 0 0 0
SMALL
GASTEIGER

@<TRIPOS>ATOM
      1 C          62.5573   90.3928   12.3813 C.2     1  UNL1       -0.0420
      2 C          63.5878   90.7230   13.4200 C.2     1  UNL1       -0.0239
      3 C          64.6890   91.4923   12.7524 C.ar    1  UNL1       -0.0078
      4 C          65.9651   92.0793   13.2786 C.ar    1  UNL1        0.0002
      5 C          66.8913   92.8115   12.3534 C.ar    1  UNL1        0.0114
      6 C          66.5413   92.9568   10.9020 C.ar    1  UNL1        0.0574
      7 CL         67.4675   93.6890    9.9768 Cl      1  UNL1       -0.0823
      8 C          65.2652   92.3698   10.3759 C.ar    1  UNL1        0.0074
      9 C          64.3390   91.6375   11.3011 C.ar    1  UNL1       -0.0176
     10 C          63.0216   90.9580   11.0717 C.3     1  UNL1        0.0480
     11 C          61.2858   89.6311   12.6117 C.3     1  UNL1        0.0394
     12 C          60.2677   89.5222   11.5156 C.3     1  UNL1        0.0765
     13 C          60.2288   88.8973    8.9940 C.3     1  UNL1        0.0897
     14 N          60.4443   88.5064   10.4261 N.3     1  UNL1       -0.2700
     15 C          60.8365   87.0997   10.7687 C.3     1  UNL1        0.0897
     16 C          63.5278   90.3496   14.8715 C.3     1  UNL1        0.0733
     17 C          63.6078   88.9081   15.2791 C.ar    1  UNL1        0.0849
     18 C          64.3906   87.9359   14.4472 C.ar    1  UNL1        0.0185
     19 C          64.4707   86.4946   14.8546 C.ar    1  UNL1        0.0238
     20 C          63.7680   86.0254   16.0940 C.ar    1  UNL1        0.1222
     21 N          62.9852   86.9977   16.9259 N.ar    1  UNL1       -0.1467
     22 N          62.9051   88.4390   16.5185 N.ar    1  UNL1       -0.1520
@<TRIPOS>BOND
     1    13    14    1
     2    14    15    1
     3    14    12    1
     4    12    11    1
     5    11     1    1
     6     1     2    2
     7     2    16    1
     8    16    17    1
     9    17    18   ar
    10    18    19   ar
    11    19    20   ar
    12    20    21   ar
    13    21    22   ar
    14     2     3    1
    15     3     4   ar
    16     4     5   ar
    17     5     6   ar
    18     6     7    1
    19     6     8   ar
    20     8     9   ar
    21     9    10    1
    22    10     1    1
    23    22    17   ar
    24     9     3   ar
@<TRIPOS>MOLECULE
*****
 22 24 0 0 0
SMALL
GASTEIGER

@<TRIPOS>ATOM
      1 C          62.2836   88.7462   11.0119 C.2     1  UNL1       -0.0420
      2 C          62.9632   89.2627   12.2453 C.2     1  UNL1       -0.0239
      3 C          63.4440   88.0835   13.0380 C.ar    1  UNL1       -0.0078
      4 C          64.1806   87.9828   14.3407 C.ar    1  UNL1        0.0002
      5 C          64.5349   86.6368   14.8999 C.ar    1  UNL1        0.0114
      6 C          64.1524   85.3915   14.1563 C.ar    1  UNL1        0.0574
      7 CL         64.5067   84.0454   14.7155 Cl      1  UNL1       -0.0823
      8 C          63.4158   85.4922   12.8536 C.ar    1  UNL1        0.0074
      9 C          63.0616   86.8382   12.2944 C.ar    1  UNL1       -0.0176
     10 C          62.3444   87.2478   11.0422 C.3     1  UNL1        0.0480
     11 C          61.6538   89.5815    9.9369 C.3     1  UNL1        0.0394
     12 C          60.2016   89.4059    9.6047 C.3     1  UNL1        0.0765
     13 C          59.6960   87.0714    8.5828 C.3     1  UNL1        0.0897
     14 N          59.7970   88.5606    8.4336 N.3     1  UNL1       -0.2700
     15 C          59.4935   89.2043    7.1132 C.3     1  UNL1        0.0897
     16 C          63.1323   90.7052   12.6203 C.3     1  UNL1        0.0733
     17 C          64.3961   91.4300   12.2628 C.ar    1  UNL1        0.0849
     18 C          64.5742   91.9909   10.8831 C.ar    1  UNL1        0.0185
     19 C          65.8379   92.7156   10.5255 C.ar    1  UNL1        0.0238
     20 C          66.9234   92.8794   11.5476 C.ar    1  UNL1        0.1222
     21 N          66.7453   92.3184   12.9273 N.ar    1  UNL1       -0.1467
     22 N          65.4816   91.5937   13.2849 N.ar    1  UNL1       -0.1520
@<TRIPOS>BOND
     1    13    14    1
     2    14    15    1
     3    14    12    1
     4    12    11    1
     5    11     1    1
     6     1     2    2
     7     2    16    1
     8    16    17    1
     9    17    18   ar
    10    18    19   ar
    11    19    20   ar
    12    20    21   ar
    13    21    22   ar
    14     2     3    1
    15     3     4   ar
    16     4     5   ar
    17     5     6   ar
    18     6     7    1
    19     6     8   ar
    20     8     9   ar
    21     9    10    1
    22    10     1    1
    23    22    17   ar
    24     9     3   ar
