@<TRIPOS>MOLECULE
*****
 32 36 0 0 0
SMALL
GASTEIGER

@<TRIPOS>ATOM
      1 C          62.7703   86.2671   10.5828 C.3     1  UNL1        0.1211
      2 C          62.8684   86.5394    9.1110 C.3     1  UNL1        0.0804
      3 N          62.9628   85.3985    8.1418 N.3     1  UNL1       -0.2969
      4 C          62.9590   83.9852    8.6444 C.3     1  UNL1        0.0714
      5 C          62.8609   83.7129   10.1162 C.3     1  UNL1        0.0490
      6 C          62.7665   84.8538   11.0854 C.3     1  UNL1        0.1224
      7 O          62.6665   85.8868   12.1685 O.3     1  UNL1       -0.3492
      8 C          62.5894   85.1721   13.4850 C.3     1  UNL1        0.1687
      9 C          62.6417   83.6973   13.2156 C.ar    1  UNL1        0.0079
     10 C          62.6038   82.5082   14.1291 C.ar    1  UNL1        0.0299
     11 C          62.6754   81.1223   13.5596 C.ar    1  UNL1        0.1671
     12 F          62.6375   79.9333   14.4730 F       1  UNL1       -0.2018
     13 C          62.7849   80.9257   12.0766 C.ar    1  UNL1        0.1671
     14 F          62.8565   79.5399   11.5071 F       1  UNL1       -0.2018
     15 C          62.8228   82.1148   11.1630 C.ar    1  UNL1        0.0297
     16 C          62.7512   83.5007   11.7325 C.ar    1  UNL1        0.0033
     17 H          63.8318   85.5242    7.6229 H       1  UNL1        0.1233
     18 N          61.6534   88.4858   11.3445 N.am    1  UNL1       -0.2770
     19 C          62.6759   87.4080   11.5520 C.2     1  UNL1        0.2294
     20 O          63.6039   87.4712   12.7288 O.2     1  UNL1       -0.2747
     21 C          60.7254   88.4226   10.1677 C.3     1  UNL1        0.0758
     22 C          59.6681   87.7026    9.3843 C.3     1  UNL1        0.0215
     23 C          60.1754   89.0331    8.9129 C.3     1  UNL1        0.0215
     24 C          61.5590   89.6267   12.3137 C.3     1  UNL1        0.1197
     25 C          65.5856   92.7044   11.1671 C.3     1  UNL1        0.0307
     26 C          64.8131   91.8936   12.1651 C.ar    1  UNL1       -0.0260
     27 C          65.2815   91.8108   13.5876 C.ar    1  UNL1       -0.0046
     28 C          64.5091   90.9999   14.5856 C.ar    1  UNL1       -0.0006
     29 C          63.2683   90.2719   14.1610 C.ar    1  UNL1       -0.0029
     30 C          62.7999   90.3547   12.7383 C.ar    1  UNL1       -0.0066
     31 C          63.5723   91.1656   11.7404 C.ar    1  UNL1       -0.0281
     32 C          63.1039   91.2484   10.3178 C.3     1  UNL1        0.0304
@<TRIPOS>BOND
     1    25    26    1
     2    26    27   ar
     3    27    28   ar
     4    28    29   ar
     5    29    30   ar
     6    30    24    1
     7    24    18    1
     8    18    19   am
     9    19    20    2
    10     1    19    1
    11     1     2    1
    12     2     3    1
    13     3     4    1
    14     4     5    1
    15     6     5    1
    16     6     7    1
    17     7     8    1
    18     8     9    1
    19     9    10   ar
    20    10    11   ar
    21    11    12    1
    22    11    13   ar
    23    13    14    1
    24    13    15   ar
    25    15    16   ar
    26    18    21    1
    27    21    22    1
    28    22    23    1
    29    30    31   ar
    30    31    32    1
    31    31    26   ar
    32     6     1    1
    33    16     9   ar
    34    23    21    1
    35    16     6    1
    36     3    17    1
@<TRIPOS>MOLECULE
*****
 32 36 0 0 0
SMALL
GASTEIGER

@<TRIPOS>ATOM
      1 C          62.7861   87.3272   11.5151 C.3     1  UNL1        0.1211
      2 C          62.3156   87.8319   10.1832 C.3     1  UNL1        0.0804
      3 N          61.9126   86.8612    9.1131 N.3     1  UNL1       -0.2969
      4 C          61.9800   85.3857    9.3748 C.3     1  UNL1        0.0714
      5 C          62.4505   84.8810   10.7067 C.3     1  UNL1        0.0490
      6 C          62.8535   85.8517   11.7768 C.3     1  UNL1        0.1224
      7 O          63.2868   86.6977   12.9373 O.3     1  UNL1       -0.3492
      8 C          63.6744   85.7812   14.0598 C.3     1  UNL1        0.1687
      9 C          63.4806   84.3689   13.5931 C.ar    1  UNL1        0.0079
     10 C          63.7006   83.0488   14.2705 C.ar    1  UNL1        0.0299
     11 C          63.4133   81.7723   13.5370 C.ar    1  UNL1        0.1671
     12 F          63.6333   80.4522   14.2144 F       1  UNL1       -0.2018
     13 C          62.9060   81.8159   12.1261 C.ar    1  UNL1        0.1671
     14 F          62.6187   80.5394   11.3926 F       1  UNL1       -0.2018
     15 C          62.6860   83.1360   11.4486 C.ar    1  UNL1        0.0297
     16 C          62.9733   84.4125   12.1821 C.ar    1  UNL1        0.0033
     17 H          62.5113   87.0451    8.3081 H       1  UNL1        0.1233
     18 N          62.3508   89.5134   12.8497 N.am    1  UNL1       -0.2770
     19 C          63.1891   88.2979   12.5853 C.2     1  UNL1        0.2294
     20 O          64.4304   88.0532   13.3910 O.2     1  UNL1       -0.2747
     21 C          61.1094   89.7581   12.0439 C.3     1  UNL1        0.0758
     22 C          60.4078   90.4615   10.9201 C.3     1  UNL1        0.0215
     23 C          59.6610   89.4785   11.7721 C.3     1  UNL1        0.0215
     24 C          62.7538   90.4841   13.9199 C.3     1  UNL1        0.1197
     25 C          66.8440   92.7997   16.1353 C.3     1  UNL1        0.0307
     26 C          66.0851   92.4036   14.9035 C.ar    1  UNL1       -0.0260
     27 C          66.6125   92.7693   13.5478 C.ar    1  UNL1       -0.0046
     28 C          65.8536   92.3732   12.3159 C.ar    1  UNL1       -0.0006
     29 C          64.5673   91.6115   12.4400 C.ar    1  UNL1       -0.0029
     30 C          64.0400   91.2458   13.7958 C.ar    1  UNL1       -0.0066
     31 C          64.7989   91.6419   15.0276 C.ar    1  UNL1       -0.0281
     32 C          64.2715   91.2762   16.3834 C.3     1  UNL1        0.0304
@<TRIPOS>BOND
     1    25    26    1
     2    26    27   ar
     3    27    28   ar
     4    28    29   ar
     5    29    30   ar
     6    30    24    1
     7    24    18    1
     8    18    19   am
     9    19    20    2
    10     1    19    1
    11     1     2    1
    12     2     3    1
    13     3     4    1
    14     4     5    1
    15     6     5    1
    16     6     7    1
    17     7     8    1
    18     8     9    1
    19     9    10   ar
    20    10    11   ar
    21    11    12    1
    22    11    13   ar
    23    13    14    1
    24    13    15   ar
    25    15    16   ar
    26    18    21    1
    27    21    22    1
    28    22    23    1
    29    30    31   ar
    30    31    32    1
    31    31    26   ar
    32     6     1    1
    33    16     9   ar
    34    23    21    1
    35    16     6    1
    36     3    17    1
@<TRIPOS>MOLECULE
*****
 32 36 0 0 0
SMALL
GASTEIGER

@<TRIPOS>ATOM
      1 C          60.0254   95.5144   -2.7338 C.3     1  UNL1        0.1211
      2 C          60.6017   96.4309   -3.7719 C.3     1  UNL1        0.0804
      3 N          60.1704   96.3081   -5.2033 N.3     1  UNL1       -0.2969
      4 C          59.1628   95.2688   -5.5965 C.3     1  UNL1        0.0714
      5 C          58.5865   94.3523   -4.5583 C.3     1  UNL1        0.0490
      6 C          59.0178   94.4751   -3.1269 C.3     1  UNL1        0.1224
      7 O          59.3512   94.4791   -1.6644 O.3     1  UNL1       -0.3492
      8 C          58.5464   93.4001   -1.0025 C.3     1  UNL1        0.1687
      9 C          57.7156   92.7292   -2.0559 C.ar    1  UNL1        0.0079
     10 C          56.7315   91.5992   -1.9893 C.ar    1  UNL1        0.0299
     11 C          56.0387   91.1334   -3.2356 C.ar    1  UNL1        0.1671
     12 F          55.0546   90.0034   -3.1689 F       1  UNL1       -0.2018
     13 C          56.3301   91.7977   -4.5484 C.ar    1  UNL1        0.1671
     14 F          55.6373   91.3320   -5.7947 F       1  UNL1       -0.2018
     15 C          57.3142   92.9278   -4.6152 C.ar    1  UNL1        0.0297
     16 C          58.0070   93.3935   -3.3689 C.ar    1  UNL1        0.0033
     17 H          61.0118   96.1240   -5.7496 H       1  UNL1        0.1233
     18 N          61.7436   95.0127   -0.8506 N.am    1  UNL1       -0.2770
     19 C          60.4567   95.6372   -1.3023 C.2     1  UNL1        0.2294
     20 O          59.6012   96.3843   -0.3227 O.2     1  UNL1       -0.2747
     21 C          62.5992   94.2656   -1.8303 C.3     1  UNL1        0.0758
     22 C          62.7870   93.1230   -2.7839 C.3     1  UNL1        0.0215
     23 C          63.8932   94.1141   -2.5737 C.3     1  UNL1        0.0215
     24 C          62.1749   95.1355    0.5808 C.3     1  UNL1        0.1197
     25 C          63.5072   90.9096    3.2951 C.3     1  UNL1        0.0307
     26 C          62.4895   91.9466    2.9221 C.ar    1  UNL1       -0.0260
     27 C          61.1202   91.9074    3.5333 C.ar    1  UNL1       -0.0046
     28 C          60.1025   92.9444    3.1603 C.ar    1  UNL1       -0.0006
     29 C          60.4540   94.0204    2.1761 C.ar    1  UNL1       -0.0029
     30 C          61.8234   94.0595    1.5649 C.ar    1  UNL1       -0.0066
     31 C          62.8410   93.0226    1.9379 C.ar    1  UNL1       -0.0281
     32 C          64.2104   93.0617    1.3267 C.3     1  UNL1        0.0304
@<TRIPOS>BOND
     1    25    26    1
     2    26    27   ar
     3    27    28   ar
     4    28    29   ar
     5    29    30   ar
     6    30    24    1
     7    24    18    1
     8    18    19   am
     9    19    20    2
    10     1    19    1
    11     1     2    1
    12     2     3    1
    13     3     4    1
    14     4     5    1
    15     6     5    1
    16     6     7    1
    17     7     8    1
    18     8     9    1
    19     9    10   ar
    20    10    11   ar
    21    11    12    1
    22    11    13   ar
    23    13    14    1
    24    13    15   ar
    25    15    16   ar
    26    18    21    1
    27    21    22    1
    28    22    23    1
    29    30    31   ar
    30    31    32    1
    31    31    26   ar
    32     6     1    1
    33    16     9   ar
    34    23    21    1
    35    16     6    1
    36     3    17    1
@<TRIPOS>MOLECULE
*****
 32 36 0 0 0
SMALL
GASTEIGER

@<TRIPOS>ATOM
      1 C          62.1985   89.1347   12.3187 C.3     1  UNL1        0.1211
      2 C          61.2022   89.7491   11.3807 C.3     1  UNL1        0.0804
      3 N          60.5019   88.8951   10.3658 N.3     1  UNL1       -0.2969
      4 C          60.7980   87.4267   10.2887 C.3     1  UNL1        0.0714
      5 C          61.7943   86.8122   11.2266 C.3     1  UNL1        0.0490
      6 C          62.4946   87.6662   12.2416 C.3     1  UNL1        0.1224
      7 O          63.2690   88.3899   13.3031 O.3     1  UNL1       -0.3492
      8 C          64.1445   87.3912   14.0003 C.3     1  UNL1        0.1687
      9 C          63.9112   86.0502   13.3698 C.ar    1  UNL1        0.0079
     10 C          64.4954   84.6965   13.6449 C.ar    1  UNL1        0.0299
     11 C          64.0600   83.5125   12.8332 C.ar    1  UNL1        0.1671
     12 F          64.6443   82.1588   13.1083 F       1  UNL1       -0.2018
     13 C          63.0403   83.6826   11.7463 C.ar    1  UNL1        0.1671
     14 F          62.6049   82.4987   10.9345 F       1  UNL1       -0.2018
     15 C          62.4560   85.0364   11.4711 C.ar    1  UNL1        0.0297
     16 C          62.8914   86.2203   12.2828 C.ar    1  UNL1        0.0033
     17 H          60.7197   89.2879    9.4499 H       1  UNL1        0.1233
     18 N          63.7610   91.1315   12.8857 N.am    1  UNL1       -0.2770
     19 C          62.8988   89.9887   13.3337 C.2     1  UNL1        0.2294
     20 O          62.7369   89.7000   14.7967 O.2     1  UNL1       -0.2747
     21 C          63.9229   91.4203   11.4227 C.3     1  UNL1        0.0758
     22 C          64.6196   92.1482   10.3115 C.3     1  UNL1        0.0215
     23 C          63.5064   91.1924    9.9998 C.3     1  UNL1        0.0215
     24 C          64.4612   91.9855   13.9007 C.3     1  UNL1        0.1197
     25 C          68.8637   92.5595   16.6006 C.3     1  UNL1        0.0307
     26 C          68.1614   92.3015   15.3004 C.ar    1  UNL1       -0.0260
     27 C          68.9579   92.0726   14.0502 C.ar    1  UNL1       -0.0046
     28 C          68.2556   91.8146   12.7501 C.ar    1  UNL1       -0.0006
     29 C          66.7567   91.7856   12.7003 C.ar    1  UNL1       -0.0029
     30 C          65.9601   92.0145   13.9506 C.ar    1  UNL1       -0.0066
     31 C          66.6625   92.2725   15.2506 C.ar    1  UNL1       -0.0281
     32 C          65.8659   92.5015   16.5009 C.3     1  UNL1        0.0304
@<TRIPOS>BOND
     1    25    26    1
     2    26    27   ar
     3    27    28   ar
     4    28    29   ar
     5    29    30   ar
     6    30    24    1
     7    24    18    1
     8    18    19   am
     9    19    20    2
    10     1    19    1
    11     1     2    1
    12     2     3    1
    13     3     4    1
    14     4     5    1
    15     6     5    1
    16     6     7    1
    17     7     8    1
    18     8     9    1
    19     9    10   ar
    20    10    11   ar
    21    11    12    1
    22    11    13   ar
    23    13    14    1
    24    13    15   ar
    25    15    16   ar
    26    18    21    1
    27    21    22    1
    28    22    23    1
    29    30    31   ar
    30    31    32    1
    31    31    26   ar
    32     6     1    1
    33    16     9   ar
    34    23    21    1
    35    16     6    1
    36     3    17    1
@<TRIPOS>MOLECULE
*****
 32 36 0 0 0
SMALL
GASTEIGER

@<TRIPOS>ATOM
      1 C          60.1139   95.5536   -3.4500 C.3     1  UNL1        0.1211
      2 C          60.6624   96.3535   -4.5942 C.3     1  UNL1        0.0804
      3 N          60.1813   96.0921   -5.9907 N.3     1  UNL1       -0.2969
      4 C          59.1517   95.0308   -6.2429 C.3     1  UNL1        0.0714
      5 C          58.6032   94.2309   -5.0987 C.3     1  UNL1        0.0490
      6 C          59.0844   94.4923   -3.7023 C.3     1  UNL1        0.1224
      7 O          59.4676   94.6399   -2.2595 O.3     1  UNL1       -0.3492
      8 C          58.6764   93.6432   -1.4654 C.3     1  UNL1        0.1687
      9 C          57.8042   92.8795   -2.4173 C.ar    1  UNL1        0.0079
     10 C          56.8130   91.7741   -2.2039 C.ar    1  UNL1        0.0299
     11 C          56.0739   91.1934   -3.3729 C.ar    1  UNL1        0.1671
     12 F          55.0827   90.0881   -3.1596 F       1  UNL1       -0.2018
     13 C          56.3260   91.7182   -4.7553 C.ar    1  UNL1        0.1671
     14 F          55.5869   91.1376   -5.9243 F       1  UNL1       -0.2018
     15 C          57.3172   92.8237   -4.9688 C.ar    1  UNL1        0.0297
     16 C          58.0563   93.4043   -3.7998 C.ar    1  UNL1        0.0033
     17 H          61.0019   95.8434   -6.5431 H       1  UNL1        0.1233
     18 N          61.8797   95.2049   -1.5763 N.am    1  UNL1       -0.2770
     19 C          60.5951   95.8149   -2.0535 C.2     1  UNL1        0.2294
     20 O          59.7916   96.6862   -1.1341 O.2     1  UNL1       -0.2747
     21 C          62.6832   94.3336   -2.4957 C.3     1  UNL1        0.0758
     22 C          62.8062   93.0968   -3.3355 C.3     1  UNL1        0.0215
     23 C          63.9518   94.0612   -3.2483 C.3     1  UNL1        0.0215
     24 C          62.3608   95.4662   -0.1798 C.3     1  UNL1        0.1197
     25 C          60.0386   92.6358    3.5075 C.3     1  UNL1        0.0307
     26 C          61.2426   92.9337    2.6638 C.ar    1  UNL1       -0.0260
     27 C          62.4893   92.1144    2.8199 C.ar    1  UNL1       -0.0046
     28 C          63.6932   92.4123    1.9762 C.ar    1  UNL1       -0.0006
     29 C          63.6504   93.5296    0.9763 C.ar    1  UNL1       -0.0029
     30 C          62.4036   94.3490    0.8201 C.ar    1  UNL1       -0.0066
     31 C          61.1998   94.0510    1.6638 C.ar    1  UNL1       -0.0281
     32 C          59.9530   94.8704    1.5077 C.3     1  UNL1        0.0304
@<TRIPOS>BOND
     1    25    26    1
     2    26    27   ar
     3    27    28   ar
     4    28    29   ar
     5    29    30   ar
     6    30    24    1
     7    24    18    1
     8    18    19   am
     9    19    20    2
    10     1    19    1
    11     1     2    1
    12     2     3    1
    13     3     4    1
    14     4     5    1
    15     6     5    1
    16     6     7    1
    17     7     8    1
    18     8     9    1
    19     9    10   ar
    20    10    11   ar
    21    11    12    1
    22    11    13   ar
    23    13    14    1
    24    13    15   ar
    25    15    16   ar
    26    18    21    1
    27    21    22    1
    28    22    23    1
    29    30    31   ar
    30    31    32    1
    31    31    26   ar
    32     6     1    1
    33    16     9   ar
    34    23    21    1
    35    16     6    1
    36     3    17    1
@<TRIPOS>MOLECULE
*****
 32 36 0 0 0
SMALL
GASTEIGER

@<TRIPOS>ATOM
      1 C          63.0713   88.9324   11.9184 C.3     1  UNL1        0.1211
      2 C          62.2183   88.9898   10.6859 C.3     1  UNL1        0.0804
      3 N          62.1879   90.2364    9.8523 N.3     1  UNL1       -0.2969
      4 C          63.0105   91.4256   10.2511 C.3     1  UNL1        0.0714
      5 C          63.8635   91.3682   11.4837 C.3     1  UNL1        0.0490
      6 C          63.8939   90.1216   12.3173 C.3     1  UNL1        0.1224
      7 O          64.0252   88.9501   13.2449 O.3     1  UNL1       -0.3492
      8 C          64.9778   89.3301   14.3395 C.3     1  UNL1        0.1687
      9 C          65.4352   90.7365   14.0885 C.ar    1  UNL1        0.0079
     10 C          66.3751   91.6348   14.8365 C.ar    1  UNL1        0.0299
     11 C          66.6451   93.0224   14.3347 C.ar    1  UNL1        0.1671
     12 F          67.5850   93.9207   15.0826 F       1  UNL1       -0.2018
     13 C          65.9752   93.5115   13.0849 C.ar    1  UNL1        0.1671
     14 F          66.2452   94.8991   12.5831 F       1  UNL1       -0.2018
     15 C          65.0353   92.6132   12.3369 C.ar    1  UNL1        0.0297
     16 C          64.7653   91.2257   12.8387 C.ar    1  UNL1        0.0033
     17 H          61.2168   90.5468    9.8221 H       1  UNL1        0.1233
     18 N          62.6816   86.3747   12.1565 N.am    1  UNL1       -0.2770
     19 C          63.1017   87.6857   12.7521 C.2     1  UNL1        0.2294
     20 O          63.5522   87.7501   14.1814 O.2     1  UNL1       -0.2747
     21 C          62.2310   86.3104   10.7271 C.3     1  UNL1        0.0758
     22 C          61.1313   86.1697    9.7168 C.3     1  UNL1        0.0215
     23 C          62.5504   86.3396    9.2619 C.3     1  UNL1        0.0215
     24 C          62.7120   85.1281   12.9901 C.3     1  UNL1        0.1197
     25 C          62.3700   79.9441   13.0872 C.3     1  UNL1        0.0307
     26 C          62.7847   81.2058   12.3899 C.ar    1  UNL1       -0.0260
     27 C          63.4431   81.1372   11.0439 C.ar    1  UNL1       -0.0046
     28 C          63.8578   82.3989   10.3466 C.ar    1  UNL1       -0.0006
     29 C          63.6141   83.7292   10.9953 C.ar    1  UNL1       -0.0029
     30 C          62.9557   83.7978   12.3414 C.ar    1  UNL1       -0.0066
     31 C          62.5410   82.5362   13.0386 C.ar    1  UNL1       -0.0281
     32 C          61.8826   82.6048   14.3847 C.3     1  UNL1        0.0304
@<TRIPOS>BOND
     1    25    26    1
     2    26    27   ar
     3    27    28   ar
     4    28    29   ar
     5    29    30   ar
     6    30    24    1
     7    24    18    1
     8    18    19   am
     9    19    20    2
    10     1    19    1
    11     1     2    1
    12     2     3    1
    13     3     4    1
    14     4     5    1
    15     6     5    1
    16     6     7    1
    17     7     8    1
    18     8     9    1
    19     9    10   ar
    20    10    11   ar
    21    11    12    1
    22    11    13   ar
    23    13    14    1
    24    13    15   ar
    25    15    16   ar
    26    18    21    1
    27    21    22    1
    28    22    23    1
    29    30    31   ar
    30    31    32    1
    31    31    26   ar
    32     6     1    1
    33    16     9   ar
    34    23    21    1
    35    16     6    1
    36     3    17    1
@<TRIPOS>MOLECULE
*****
 32 36 0 0 0
SMALL
GASTEIGER

@<TRIPOS>ATOM
      1 C          63.9092   86.9266   13.6413 C.3     1  UNL1        0.1211
      2 C          64.5688   87.8776   14.5956 C.3     1  UNL1        0.0804
      3 N          64.3163   89.3516   14.4800 N.3     1  UNL1       -0.2969
      4 C          63.4042   89.8747   13.4102 C.3     1  UNL1        0.0714
      5 C          62.7446   88.9237   12.4559 C.3     1  UNL1        0.0490
      6 C          62.9972   87.4497   12.5715 C.3     1  UNL1        0.1224
      7 O          63.1534   85.9578   12.5643 O.3     1  UNL1       -0.3492
      8 C          62.3184   85.4096   11.4453 C.3     1  UNL1        0.1687
      9 C          61.6459   86.5627   10.7608 C.ar    1  UNL1        0.0079
     10 C          60.7059   86.6275    9.5938 C.ar    1  UNL1        0.0299
     11 C          60.1853   87.9531    9.1227 C.ar    1  UNL1        0.1671
     12 F          59.2453   88.0179    7.9557 F       1  UNL1       -0.2018
     13 C          60.6049   89.2138    9.8188 C.ar    1  UNL1        0.1671
     14 F          60.0843   90.5394    9.3478 F       1  UNL1       -0.2018
     15 C          61.5449   89.1491   10.9859 C.ar    1  UNL1        0.0297
     16 C          62.0655   87.8235   11.4569 C.ar    1  UNL1        0.0033
     17 H          65.2234   89.7954   14.3364 H       1  UNL1        0.1233
     18 N          63.6876   84.7029   14.9666 N.am    1  UNL1       -0.2770
     19 C          64.1617   85.4525   13.7569 C.2     1  UNL1        0.2294
     20 O          64.8883   84.7280   12.6628 O.2     1  UNL1       -0.2747
     21 C          62.9610   85.4275   16.0608 C.3     1  UNL1        0.0758
     22 C          61.6757   85.8583   16.7029 C.3     1  UNL1        0.0215
     23 C          62.9879   86.2517   17.3137 C.3     1  UNL1        0.0215
     24 C          63.9401   83.2289   15.0822 C.3     1  UNL1        0.1197
     25 C          63.0954   80.0385   11.0687 C.3     1  UNL1        0.0307
     26 C          62.6328   80.6622   12.3521 C.ar    1  UNL1       -0.0260
     27 C          61.2855   80.3144   12.9122 C.ar    1  UNL1       -0.0046
     28 C          60.8230   80.9381   14.1956 C.ar    1  UNL1       -0.0006
     29 C          61.7078   81.9096   14.9189 C.ar    1  UNL1       -0.0029
     30 C          63.0552   82.2574   14.3588 C.ar    1  UNL1       -0.0066
     31 C          63.5177   81.6337   13.0755 C.ar    1  UNL1       -0.0281
     32 C          64.8651   81.9815   12.5154 C.3     1  UNL1        0.0304
@<TRIPOS>BOND
     1    25    26    1
     2    26    27   ar
     3    27    28   ar
     4    28    29   ar
     5    29    30   ar
     6    30    24    1
     7    24    18    1
     8    18    19   am
     9    19    20    2
    10     1    19    1
    11     1     2    1
    12     2     3    1
    13     3     4    1
    14     4     5    1
    15     6     5    1
    16     6     7    1
    17     7     8    1
    18     8     9    1
    19     9    10   ar
    20    10    11   ar
    21    11    12    1
    22    11    13   ar
    23    13    14    1
    24    13    15   ar
    25    15    16   ar
    26    18    21    1
    27    21    22    1
    28    22    23    1
    29    30    31   ar
    30    31    32    1
    31    31    26   ar
    32     6     1    1
    33    16     9   ar
    34    23    21    1
    35    16     6    1
    36     3    17    1
@<TRIPOS>MOLECULE
*****
 32 36 0 0 0
SMALL
GASTEIGER

@<TRIPOS>ATOM
      1 C          61.8587   88.2373    9.9797 C.3     1  UNL1        0.1211
      2 C          61.0013   88.3384    8.7531 C.3     1  UNL1        0.0804
      3 N          60.3696   87.1065    8.1760 N.3     1  UNL1       -0.2969
      4 C          60.5952   85.7733    8.8255 C.3     1  UNL1        0.0714
      5 C          61.4526   85.6722   10.0521 C.3     1  UNL1        0.0490
      6 C          62.0844   86.9042   10.6292 C.3     1  UNL1        0.1224
      7 O          62.7781   88.0429   11.3165 O.3     1  UNL1       -0.3492
      8 C          63.5211   87.4891   12.4960 C.3     1  UNL1        0.1687
      9 C          63.2866   86.0080   12.5378 C.ar    1  UNL1        0.0079
     10 C          63.7669   84.9420   13.4772 C.ar    1  UNL1        0.0299
     11 C          63.3593   83.5143   13.2631 C.ar    1  UNL1        0.1671
     12 F          63.8395   82.4483   14.2026 F       1  UNL1       -0.2018
     13 C          62.4714   83.1529   12.1094 C.ar    1  UNL1        0.1671
     14 F          62.0638   81.7253   11.8953 F       1  UNL1       -0.2018
     15 C          61.9910   84.2190   11.1699 C.ar    1  UNL1        0.0297
     16 C          62.3986   85.6466   11.3840 C.ar    1  UNL1        0.0033
     17 H          60.7038   87.0265    7.2156 H       1  UNL1        0.1233
     18 N          61.7331   90.3092   11.5422 N.am    1  UNL1       -0.2770
     19 C          62.4905   89.4693   10.5569 C.2     1  UNL1        0.2294
     20 O          63.8796   89.8613   10.1487 O.2     1  UNL1       -0.2747
     21 C          60.3439   89.9172   11.9504 C.3     1  UNL1        0.0758
     22 C          59.4149   88.9770   12.6596 C.3     1  UNL1        0.0215
     23 C          58.8668   90.1783   11.9479 C.3     1  UNL1        0.0215
     24 C          62.3648   91.5412   12.1194 C.3     1  UNL1        0.1197
     25 C          67.4029   92.5148   12.9377 C.3     1  UNL1        0.0307
     26 C          66.1064   91.9108   13.3897 C.ar    1  UNL1       -0.0260
     27 C          66.0325   91.1897   14.7029 C.ar    1  UNL1       -0.0046
     28 C          64.7359   90.5857   15.1550 C.ar    1  UNL1       -0.0006
     29 C          63.5134   90.7029   14.2938 C.ar    1  UNL1       -0.0029
     30 C          63.5874   91.4240   12.9806 C.ar    1  UNL1       -0.0066
     31 C          64.8838   92.0280   12.5286 C.ar    1  UNL1       -0.0281
     32 C          64.9578   92.7491   11.2153 C.3     1  UNL1        0.0304
@<TRIPOS>BOND
     1    25    26    1
     2    26    27   ar
     3    27    28   ar
     4    28    29   ar
     5    29    30   ar
     6    30    24    1
     7    24    18    1
     8    18    19   am
     9    19    20    2
    10     1    19    1
    11     1     2    1
    12     2     3    1
    13     3     4    1
    14     4     5    1
    15     6     5    1
    16     6     7    1
    17     7     8    1
    18     8     9    1
    19     9    10   ar
    20    10    11   ar
    21    11    12    1
    22    11    13   ar
    23    13    14    1
    24    13    15   ar
    25    15    16   ar
    26    18    21    1
    27    21    22    1
    28    22    23    1
    29    30    31   ar
    30    31    32    1
    31    31    26   ar
    32     6     1    1
    33    16     9   ar
    34    23    21    1
    35    16     6    1
    36     3    17    1
@<TRIPOS>MOLECULE
*****
 32 36 0 0 0
SMALL
GASTEIGER

@<TRIPOS>ATOM
      1 C          62.2279   89.8082   12.8095 C.3     1  UNL1        0.1211
      2 C          61.8250   89.2775   14.1533 C.3     1  UNL1        0.0804
      3 N          62.5641   89.7126   15.3838 N.3     1  UNL1       -0.2969
      4 C          63.7061   90.6786   15.2705 C.3     1  UNL1        0.0714
      5 C          64.1090   91.2093   13.9267 C.3     1  UNL1        0.0490
      6 C          63.3699   90.7741   12.6962 C.3     1  UNL1        0.1224
      7 O          62.7281   90.4316   11.3843 O.3     1  UNL1       -0.3492
      8 C          63.4468   91.1864   10.3055 C.3     1  UNL1        0.1687
      9 C          64.5329   91.9953   10.9506 C.ar    1  UNL1        0.0079
     10 C          65.5590   92.9310   10.3836 C.ar    1  UNL1        0.0299
     11 C          66.5376   93.6119   11.2939 C.ar    1  UNL1        0.1671
     12 F          67.5637   94.5475   10.7269 F       1  UNL1       -0.2018
     13 C          66.4901   93.3571   12.7713 C.ar    1  UNL1        0.1671
     14 F          67.4686   94.0380   13.6817 F       1  UNL1       -0.2018
     15 C          65.4639   92.4214   13.3385 C.ar    1  UNL1        0.0297
     16 C          64.4854   91.7405   12.4281 C.ar    1  UNL1        0.0033
     17 H          62.9351   88.8678   15.8187 H       1  UNL1        0.1233
     18 N          61.5793   87.9499   11.1135 N.am    1  UNL1       -0.2770
     19 C          61.4888   89.3730   11.5788 C.2     1  UNL1        0.2294
     20 O          60.6591   90.3610   10.8136 O.2     1  UNL1       -0.2747
     21 C          62.4090   86.9619   11.8789 C.3     1  UNL1        0.0758
     22 C          63.5576   86.6653   12.7969 C.3     1  UNL1        0.0215
     23 C          62.6975   85.5475   12.2863 C.3     1  UNL1        0.0215
     24 C          60.8403   87.5147    9.8830 C.3     1  UNL1        0.1197
     25 C          60.5087   84.4322    5.7130 C.3     1  UNL1        0.0307
     26 C          61.3092   85.0039    6.8455 C.ar    1  UNL1       -0.0260
     27 C          62.7441   84.6061    7.0255 C.ar    1  UNL1       -0.0046
     28 C          63.5446   85.1778    8.1580 C.ar    1  UNL1       -0.0006
     29 C          62.9100   86.1473    9.1105 C.ar    1  UNL1       -0.0029
     30 C          61.4749   86.5452    8.9305 C.ar    1  UNL1       -0.0066
     31 C          60.6745   85.9735    7.7980 C.ar    1  UNL1       -0.0281
     32 C          59.2394   86.3713    7.6180 C.3     1  UNL1        0.0304
@<TRIPOS>BOND
     1    25    26    1
     2    26    27   ar
     3    27    28   ar
     4    28    29   ar
     5    29    30   ar
     6    30    24    1
     7    24    18    1
     8    18    19   am
     9    19    20    2
    10     1    19    1
    11     1     2    1
    12     2     3    1
    13     3     4    1
    14     4     5    1
    15     6     5    1
    16     6     7    1
    17     7     8    1
    18     8     9    1
    19     9    10   ar
    20    10    11   ar
    21    11    12    1
    22    11    13   ar
    23    13    14    1
    24    13    15   ar
    25    15    16   ar
    26    18    21    1
    27    21    22    1
    28    22    23    1
    29    30    31   ar
    30    31    32    1
    31    31    26   ar
    32     6     1    1
    33    16     9   ar
    34    23    21    1
    35    16     6    1
    36     3    17    1
