@<TRIPOS>MOLECULE
*****
 34 38 0 0 0
SMALL
GASTEIGER

@<TRIPOS>ATOM
      1 C          62.7539   86.4727   11.8256 C.2     1  UNL1        0.2506
      2 O          63.3837   87.2330   12.9549 O.2     1  UNL1       -0.2699
      3 N          61.7772   87.1552   10.9145 N.am    1  UNL1       -0.2724
      4 C          61.1475   86.3949    9.7852 C.3     1  UNL1        0.1231
      5 C          60.1707   87.0775    8.8741 C.3     1  UNL1        0.1351
      6 C          59.5410   86.3172    7.7448 C.3     1  UNL1        0.0339
      7 O          59.8237   88.5204    9.0923 O.3     1  UNL1       -0.3527
      8 C          60.4535   89.2807   10.2216 C.3     1  UNL1        0.1621
      9 C          61.4302   88.5982   11.1327 C.3     1  UNL1        0.1096
     10 C          63.8356   81.7650   13.7409 C.3     1  UNL1        0.0327
     11 C          63.6418   82.6760   12.5650 C.ar    1  UNL1       -0.0023
     12 C          63.7950   82.1440   11.1709 C.ar    1  UNL1       -0.0027
     13 C          63.6012   83.0549    9.9950 C.ar    1  UNL1       -0.0001
     14 C          63.2542   84.4977   10.2133 C.ar    1  UNL1        0.0061
     15 C          63.1010   85.0297   11.6074 C.ar    1  UNL1        0.0726
     16 C          63.2948   84.1189   12.7832 C.ar    1  UNL1        0.1032
     17 N          63.1416   84.6508   14.1773 N.ar    1  UNL1       -0.1480
     18 N          64.2286   85.2583   15.0136 N.ar    1  UNL1       -0.1447
     19 C          63.6333   85.6517   16.3331 C.ar    1  UNL1        0.1446
     20 C          62.1784   85.2873   16.3123 C.ar    1  UNL1        0.1446
     21 N          61.8745   84.6687   14.9799 N.ar    1  UNL1       -0.1447
     22 C          62.0599   89.3585   12.2620 C.3     1  UNL1        0.0487
     23 C          63.1282   90.3728   11.9796 C.ar    1  UNL1       -0.0203
     24 C          63.2119   91.0173   10.6277 C.ar    1  UNL1       -0.0042
     25 C          64.2802   92.0317   10.3452 C.ar    1  UNL1       -0.0002
     26 C          65.2649   92.4015   11.4146 C.ar    1  UNL1        0.0030
     27 C          65.1812   91.7570   12.7666 C.ar    1  UNL1        0.0355
     28 C          64.1129   90.7427   13.0490 C.ar    1  UNL1       -0.0012
     29 C          66.1659   92.1268   13.8360 C.ar    1  UNL1        0.1622
     30 N          65.6926   92.3765   15.2374 N.ar    1  UNL1       -0.2250
     31 C          66.6773   92.7463   16.3068 C.ar    1  UNL1        0.1022
     32 C          68.1352   92.8665   15.9748 C.ar    1  UNL1        0.0414
     33 C          68.6084   92.6168   14.5735 C.ar    1  UNL1        0.1022
     34 N          67.6237   92.2470   13.5041 N.ar    1  UNL1       -0.2250
@<TRIPOS>BOND
     1    10    11    1
     2    11    12   ar
     3    12    13   ar
     4    13    14   ar
     5    14    15   ar
     6    15     1    1
     7     1     2    2
     8     1     3   am
     9     3     4    1
    10     4     5    1
    11     5     6    1
    12     5     7    1
    13     7     8    1
    14     8     9    1
    15     9    22    1
    16    22    23    1
    17    23    24   ar
    18    24    25   ar
    19    25    26   ar
    20    26    27   ar
    21    27    29    1
    22    29    30   ar
    23    30    31   ar
    24    31    32   ar
    25    32    33   ar
    26    33    34   ar
    27    27    28   ar
    28    15    16   ar
    29    16    17    1
    30    17    18   ar
    31    18    19   ar
    32    19    20   ar
    33    20    21   ar
    34    16    11   ar
    35    21    17   ar
    36     9     3    1
    37    28    23   ar
    38    34    29   ar
@<TRIPOS>MOLECULE
*****
 34 38 0 0 0
SMALL
GASTEIGER

@<TRIPOS>ATOM
      1 C          62.9846   87.1966   12.2571 C.2     1  UNL1        0.2506
      2 O          63.6578   87.5213   13.5576 O.2     1  UNL1       -0.2699
      3 N          62.2548   88.2678   11.5023 N.am    1  UNL1       -0.2724
      4 C          61.5816   87.9431   10.2018 C.3     1  UNL1        0.1231
      5 C          60.8518   89.0144    9.4470 C.3     1  UNL1        0.1351
      6 C          60.1786   88.6897    8.1465 C.3     1  UNL1        0.0339
      7 O          60.7952   90.4104    9.9927 O.3     1  UNL1       -0.3527
      8 C          61.4684   90.7352   11.2932 C.3     1  UNL1        0.1621
      9 C          62.1982   89.6639   12.0480 C.3     1  UNL1        0.1096
     10 C          63.2412   82.0660   13.0395 C.3     1  UNL1        0.0327
     11 C          63.1695   83.2353   12.1026 C.ar    1  UNL1       -0.0023
     12 C          63.1544   83.0084   10.6199 C.ar    1  UNL1       -0.0027
     13 C          63.0827   84.1775    9.6830 C.ar    1  UNL1       -0.0001
     14 C          63.0261   85.5736   10.2287 C.ar    1  UNL1        0.0061
     15 C          63.0412   85.8004   11.7114 C.ar    1  UNL1        0.0726
     16 C          63.1129   84.6313   12.6483 C.ar    1  UNL1        0.1032
     17 N          63.1280   84.8582   14.1310 N.ar    1  UNL1       -0.1480
     18 N          64.3372   85.1659   14.9635 N.ar    1  UNL1       -0.1447
     19 C          63.8931   85.3151   16.3885 C.ar    1  UNL1        0.1446
     20 C          62.4094   85.0995   16.4366 C.ar    1  UNL1        0.1446
     21 N          61.9366   84.8171   15.0414 N.ar    1  UNL1       -0.1447
     22 C          62.8714   89.9887   13.3485 C.3     1  UNL1        0.0487
     23 C          64.1915   90.7008   13.3524 C.ar    1  UNL1       -0.0203
     24 C          65.1384   90.5188   14.5013 C.ar    1  UNL1       -0.0042
     25 C          66.4587   91.2309   14.5052 C.ar    1  UNL1       -0.0002
     26 C          66.8320   92.1249   13.3601 C.ar    1  UNL1        0.0030
     27 C          65.8850   92.3069   12.2111 C.ar    1  UNL1        0.0355
     28 C          64.5648   91.5948   12.2072 C.ar    1  UNL1       -0.0012
     29 C          66.2582   93.2010   11.0660 C.ar    1  UNL1        0.1622
     30 N          65.6280   94.5560   10.9361 N.ar    1  UNL1       -0.2250
     31 C          66.0013   95.4501    9.7910 C.ar    1  UNL1        0.1022
     32 C          67.0047   94.9891    8.7757 C.ar    1  UNL1        0.0414
     33 C          67.6349   93.6342    8.9056 C.ar    1  UNL1        0.1022
     34 N          67.2616   92.7401   10.0508 N.ar    1  UNL1       -0.2250
@<TRIPOS>BOND
     1    10    11    1
     2    11    12   ar
     3    12    13   ar
     4    13    14   ar
     5    14    15   ar
     6    15     1    1
     7     1     2    2
     8     1     3   am
     9     3     4    1
    10     4     5    1
    11     5     6    1
    12     5     7    1
    13     7     8    1
    14     8     9    1
    15     9    22    1
    16    22    23    1
    17    23    24   ar
    18    24    25   ar
    19    25    26   ar
    20    26    27   ar
    21    27    29    1
    22    29    30   ar
    23    30    31   ar
    24    31    32   ar
    25    32    33   ar
    26    33    34   ar
    27    27    28   ar
    28    15    16   ar
    29    16    17    1
    30    17    18   ar
    31    18    19   ar
    32    19    20   ar
    33    20    21   ar
    34    16    11   ar
    35    21    17   ar
    36     9     3    1
    37    28    23   ar
    38    34    29   ar
@<TRIPOS>MOLECULE
*****
 34 38 0 0 0
SMALL
GASTEIGER

@<TRIPOS>ATOM
      1 C          62.7453   88.4351   11.5901 C.2     1  UNL1        0.2506
      2 O          62.6976   89.9343   11.5857 O.2     1  UNL1       -0.2699
      3 N          63.3680   87.7079   12.7449 N.am    1  UNL1       -0.2724
      4 C          63.4157   86.2087   12.7494 C.3     1  UNL1        0.1231
      5 C          64.0384   85.4816   13.9043 C.3     1  UNL1        0.1351
      6 C          64.0862   83.9824   13.9087 C.3     1  UNL1        0.0339
      7 O          64.6133   86.2537   15.0546 O.3     1  UNL1       -0.3527
      8 C          64.5656   87.7530   15.0501 C.3     1  UNL1        0.1621
      9 C          63.9429   88.4801   13.8953 C.3     1  UNL1        0.1096
     10 C          58.7471   87.3348    8.4590 C.3     1  UNL1        0.0327
     11 C          60.1713   87.1128    8.8742 C.ar    1  UNL1       -0.0023
     12 C          61.0206   86.1187    8.1391 C.ar    1  UNL1       -0.0027
     13 C          62.4447   85.8967    8.5543 C.ar    1  UNL1       -0.0001
     14 C          63.0196   86.6688    9.7046 C.ar    1  UNL1        0.0061
     15 C          62.1703   87.6629   10.4397 C.ar    1  UNL1        0.0726
     16 C          60.7462   87.8849   10.0246 C.ar    1  UNL1        0.1032
     17 N          59.8969   88.8791   10.7597 N.ar    1  UNL1       -0.1480
     18 N          59.7058   90.3200   10.3895 N.ar    1  UNL1       -0.1447
     19 C          58.7804   90.9383   11.3951 C.ar    1  UNL1        0.1446
     20 C          58.3995   89.8794   12.3870 C.ar    1  UNL1        0.1446
     21 N          59.0896   88.6068   11.9943 N.ar    1  UNL1       -0.1447
     22 C          63.8952   89.9793   13.8908 C.3     1  UNL1        0.0487
     23 C          65.1687   90.7701   13.8373 C.ar    1  UNL1       -0.0203
     24 C          66.1201   90.7388   14.9965 C.ar    1  UNL1       -0.0042
     25 C          67.3936   91.5296   14.9431 C.ar    1  UNL1       -0.0002
     26 C          67.7157   92.3517   13.7304 C.ar    1  UNL1        0.0030
     27 C          66.7641   92.3829   12.5712 C.ar    1  UNL1        0.0355
     28 C          65.4907   91.5921   12.6247 C.ar    1  UNL1       -0.0012
     29 C          67.0862   93.2049   11.3585 C.ar    1  UNL1        0.1622
     30 N          66.6624   94.6424   11.2927 N.ar    1  UNL1       -0.2250
     31 C          66.9845   95.4644   10.0801 C.ar    1  UNL1        0.1022
     32 C          67.7302   94.8490    8.9332 C.ar    1  UNL1        0.0414
     33 C          68.1539   93.4116    8.9991 C.ar    1  UNL1        0.1022
     34 N          67.8319   92.5896   10.2117 N.ar    1  UNL1       -0.2250
@<TRIPOS>BOND
     1    10    11    1
     2    11    12   ar
     3    12    13   ar
     4    13    14   ar
     5    14    15   ar
     6    15     1    1
     7     1     2    2
     8     1     3   am
     9     3     4    1
    10     4     5    1
    11     5     6    1
    12     5     7    1
    13     7     8    1
    14     8     9    1
    15     9    22    1
    16    22    23    1
    17    23    24   ar
    18    24    25   ar
    19    25    26   ar
    20    26    27   ar
    21    27    29    1
    22    29    30   ar
    23    30    31   ar
    24    31    32   ar
    25    32    33   ar
    26    33    34   ar
    27    27    28   ar
    28    15    16   ar
    29    16    17    1
    30    17    18   ar
    31    18    19   ar
    32    19    20   ar
    33    20    21   ar
    34    16    11   ar
    35    21    17   ar
    36     9     3    1
    37    28    23   ar
    38    34    29   ar
