@<TRIPOS>MOLECULE
*****
 39 42 0 0 0
SMALL
GASTEIGER

@<TRIPOS>ATOM
      1 C          62.4675   85.4202   10.0345 C.ar    1  UNL1        0.1484
      2 C          61.5501   85.1049    8.8904 C.ar    1  UNL1        0.0376
      3 C          60.6434   86.1663    8.3416 C.ar    1  UNL1        0.0044
      4 C          60.6541   87.5431    8.9369 C.ar    1  UNL1        0.0149
      5 C          61.5715   87.8584   10.0809 C.ar    1  UNL1        0.0546
      6 C          62.4783   86.7970   10.6297 C.ar    1  UNL1        0.0522
      7 N          61.5823   89.2352   10.6762 N.am    1  UNL1       -0.2679
      8 C          62.5872   89.5878   11.7325 C.2     1  UNL1        0.3093
      9 O          63.5814   88.5636   12.1936 O.2     1  UNL1       -0.2521
     10 N          62.5979   90.9646   12.3277 N.am    1  UNL1       -0.2508
     11 H          60.9298   89.9075   10.3735 H       1  UNL1        0.1564
     12 H          61.9454   91.6368   12.0251 H       1  UNL1        0.1579
     13 C          63.6029   91.3172   13.3841 C.ar    1  UNL1        0.1771
     14 C          65.0267   91.7244   13.1455 C.ar    1  UNL1        0.0737
     15 C          65.6643   91.9833   14.4784 C.ar    1  UNL1        0.1629
     16 O          64.6345   91.7361   15.5407 O.2     1  UNL1       -0.3563
     17 N          63.3605   91.3244   14.8643 N.ar    1  UNL1       -0.0621
     18 C          67.0826   92.4139   14.7086 C.3     1  UNL1        0.1409
     19 C          67.4229   92.0493   13.2939 C.3     1  UNL1        0.0162
     20 C          66.7424   92.7784   16.1232 C.3     1  UNL1        0.0162
     21 C          68.5009   92.8444   14.9387 C.3     1  UNL1        0.4035
     22 F          69.9192   93.2749   15.1689 F       1  UNL1       -0.1696
     23 F          68.9391   92.0335   13.7553 F       1  UNL1       -0.1696
     24 F          68.0627   93.6552   16.1222 F       1  UNL1       -0.1696
     25 O          63.3742   84.3587   10.5833 O.3     1  UNL1       -0.4360
     26 C          63.5028   85.1509   15.9317 C.ar    1  UNL1        0.1739
     27 C          62.8862   83.7991   15.7261 C.ar    1  UNL1        0.0593
     28 C          62.6999   83.2630   14.3375 C.ar    1  UNL1        0.0908
     29 N          62.0834   81.9112   14.1319 N.ar    1  UNL1       -0.2237
     30 C          61.8971   81.3752   12.7435 C.ar    1  UNL1        0.2015
     31 N          62.3274   82.1910   11.5606 N.ar    1  UNL1       -0.1890
     32 C          62.9439   83.5429   11.7662 C.ar    1  UNL1        0.2325
     33 C          63.1302   84.0789   13.1546 C.ar    1  UNL1        0.0745
     34 C          63.7468   85.4308   13.3603 C.ar    1  UNL1        0.0462
     35 C          63.9331   85.9668   14.7488 C.ar    1  UNL1        0.1726
     36 C          62.5753   86.4350   17.9911 C.3     1  UNL1        0.2526
     37 O          63.6891   85.6870   17.3202 O.3     1  UNL1       -0.4683
     38 O          64.5497   87.3187   14.9545 O.3     1  UNL1       -0.4684
     39 C          63.7590   88.4117   15.6104 C.3     1  UNL1        0.2526
@<TRIPOS>BOND
     1    36    37    1
     2    37    26    1
     3    26    27   ar
     4    27    28   ar
     5    28    29   ar
     6    29    30   ar
     7    30    31   ar
     8    31    32   ar
     9    32    25    1
    10    25     1    1
    11     1     2   ar
    12     2     3   ar
    13     3     4   ar
    14     4     5   ar
    15     5     7    1
    16     7     8   am
    17     8     9    2
    18     8    10   am
    19    10    13    1
    20    13    14   ar
    21    14    15   ar
    22    15    18    1
    23    18    19    1
    24    18    20    1
    25    18    21    1
    26    21    22    1
    27    21    23    1
    28    21    24    1
    29    15    16   ar
    30    16    17   ar
    31     5     6   ar
    32    32    33   ar
    33    33    34   ar
    34    34    35   ar
    35    35    38    1
    36    38    39    1
    37    35    26   ar
    38    33    28   ar
    39     6     1   ar
    40    17    13   ar
    41     7    11    1
    42    10    12    1
@<TRIPOS>MOLECULE
*****
 39 42 0 0 0
SMALL
GASTEIGER

@<TRIPOS>ATOM
      1 C          64.0122   85.8423   15.7333 C.ar    1  UNL1        0.1484
      2 C          63.4324   85.3921   17.0415 C.ar    1  UNL1        0.0376
      3 C          62.7229   86.3748   17.9252 C.ar    1  UNL1        0.0044
      4 C          62.5931   87.8076   17.5007 C.ar    1  UNL1        0.0149
      5 C          63.1728   88.2578   16.1926 C.ar    1  UNL1        0.0546
      6 C          63.8824   87.2751   15.3089 C.ar    1  UNL1        0.0522
      7 N          63.0430   89.6906   15.7682 N.am    1  UNL1       -0.2679
      8 C          64.1310   90.3354   14.9616 C.2     1  UNL1        0.3093
      9 O          65.3488   89.5474   14.5794 O.2     1  UNL1       -0.2521
     10 N          64.0012   91.7682   14.5372 N.am    1  UNL1       -0.2508
     11 H          62.2438   90.2079   16.0190 H       1  UNL1        0.1564
     12 H          63.2019   92.2855   14.7880 H       1  UNL1        0.1579
     13 C          65.0892   92.4130   13.7306 C.ar    1  UNL1        0.1771
     14 C          65.1674   92.4590   12.2333 C.ar    1  UNL1        0.0737
     15 C          66.4165   93.1994   11.8569 C.ar    1  UNL1        0.1629
     16 O          67.1102   93.6110   13.1217 O.2     1  UNL1       -0.3563
     17 N          66.2899   93.1250   14.2796 N.ar    1  UNL1       -0.0621
     18 C          66.8890   93.4791   10.4610 C.3     1  UNL1        0.1409
     19 C          67.6539   92.1888   10.4614 C.3     1  UNL1        0.0162
     20 C          66.1240   94.7693   10.4607 C.3     1  UNL1        0.0162
     21 C          67.3614   93.7588    9.0651 C.3     1  UNL1        0.4035
     22 F          67.8338   94.0384    7.6692 F       1  UNL1       -0.1696
     23 F          66.6361   95.0716    9.0827 F       1  UNL1       -0.1696
     24 F          68.0867   92.4459    9.0476 F       1  UNL1       -0.1696
     25 O          64.7217   84.8596   14.8496 O.3     1  UNL1       -0.4360
     26 C          62.0355   86.6471   10.5092 C.ar    1  UNL1        0.1739
     27 C          61.9440   85.1505   10.4679 C.ar    1  UNL1        0.0593
     28 C          62.5927   84.3294   11.5427 C.ar    1  UNL1        0.0908
     29 N          62.5012   82.8328   11.5013 N.ar    1  UNL1       -0.2237
     30 C          63.1499   82.0118   12.5760 C.ar    1  UNL1        0.2015
     31 N          63.8900   82.6874   13.6921 N.ar    1  UNL1       -0.1890
     32 C          63.9815   84.1840   13.7335 C.ar    1  UNL1        0.2325
     33 C          63.3329   85.0050   12.6588 C.ar    1  UNL1        0.0745
     34 C          63.4243   86.5017   12.7001 C.ar    1  UNL1        0.0462
     35 C          62.7756   87.3227   11.6254 C.ar    1  UNL1        0.1726
     36 C          59.8917   87.5056    9.3187 C.3     1  UNL1        0.2526
     37 O          61.3868   87.4682    9.4345 O.3     1  UNL1       -0.4683
     38 O          62.8671   88.8194   11.6667 O.3     1  UNL1       -0.4684
     39 C          61.6691   89.6335   12.0565 C.3     1  UNL1        0.2526
@<TRIPOS>BOND
     1    36    37    1
     2    37    26    1
     3    26    27   ar
     4    27    28   ar
     5    28    29   ar
     6    29    30   ar
     7    30    31   ar
     8    31    32   ar
     9    32    25    1
    10    25     1    1
    11     1     2   ar
    12     2     3   ar
    13     3     4   ar
    14     4     5   ar
    15     5     7    1
    16     7     8   am
    17     8     9    2
    18     8    10   am
    19    10    13    1
    20    13    14   ar
    21    14    15   ar
    22    15    18    1
    23    18    19    1
    24    18    20    1
    25    18    21    1
    26    21    22    1
    27    21    23    1
    28    21    24    1
    29    15    16   ar
    30    16    17   ar
    31     5     6   ar
    32    32    33   ar
    33    33    34   ar
    34    34    35   ar
    35    35    38    1
    36    38    39    1
    37    35    26   ar
    38    33    28   ar
    39     6     1   ar
    40    17    13   ar
    41     7    11    1
    42    10    12    1
@<TRIPOS>MOLECULE
*****
 39 42 0 0 0
SMALL
GASTEIGER

@<TRIPOS>ATOM
      1 C          59.8841   88.0775   10.0441 C.ar    1  UNL1        0.1484
      2 C          59.0830   88.3208   11.2888 C.ar    1  UNL1        0.0376
      3 C          59.3345   89.5474   12.1148 C.ar    1  UNL1        0.0044
      4 C          60.3870   90.5307   11.6961 C.ar    1  UNL1        0.0149
      5 C          61.1880   90.2875   10.4515 C.ar    1  UNL1        0.0546
      6 C          60.9366   89.0609    9.6254 C.ar    1  UNL1        0.0522
      7 N          62.2405   91.2709   10.0328 N.am    1  UNL1       -0.2679
      8 C          63.5494   91.3250   10.7634 C.2     1  UNL1        0.3093
      9 O          63.8059   90.3957   11.9126 O.2     1  UNL1       -0.2521
     10 N          64.6019   92.3083   10.3447 N.am    1  UNL1       -0.2508
     11 H          62.0722   91.8808    9.2786 H       1  UNL1        0.1564
     12 H          64.4336   92.9182    9.5905 H       1  UNL1        0.1579
     13 C          65.9109   92.3624   11.0753 C.ar    1  UNL1        0.1771
     14 C          66.0889   92.3885   12.5645 C.ar    1  UNL1        0.0737
     15 C          67.5597   92.4421   12.8546 C.ar    1  UNL1        0.1629
     16 O          68.2906   92.4492   11.5447 O.2     1  UNL1       -0.3563
     17 N          67.2716   92.3999   10.4451 N.ar    1  UNL1       -0.0621
     18 C          68.1890   92.4817   14.2156 C.3     1  UNL1        0.1409
     19 C          66.9142   93.0252   14.7894 C.3     1  UNL1        0.0162
     20 C          69.4639   91.9381   13.6419 C.3     1  UNL1        0.0162
     21 C          68.8184   92.5213   15.5766 C.3     1  UNL1        0.4035
     22 F          69.4477   92.5608   16.9376 F       1  UNL1       -0.1696
     23 F          68.0948   91.2609   15.9479 F       1  UNL1       -0.1696
     24 F          69.5419   93.7817   15.2054 F       1  UNL1       -0.1696
     25 O          59.6327   86.8510    9.2181 O.3     1  UNL1       -0.4360
     26 C          63.6573   84.1567   11.6250 C.ar    1  UNL1        0.1739
     27 C          63.8550   83.9694   10.1500 C.ar    1  UNL1        0.0593
     28 C          62.8982   84.5961    9.1795 C.ar    1  UNL1        0.0908
     29 N          63.0959   84.4087    7.7044 N.ar    1  UNL1       -0.2237
     30 C          62.1392   85.0355    6.7340 C.ar    1  UNL1        0.2015
     31 N          60.9848   85.8495    7.2385 N.ar    1  UNL1       -0.1890
     32 C          60.7871   86.0369    8.7136 C.ar    1  UNL1        0.2325
     33 C          61.7438   85.4102    9.6840 C.ar    1  UNL1        0.0745
     34 C          61.5461   85.5975   11.1591 C.ar    1  UNL1        0.0462
     35 C          62.5029   84.9708   12.1296 C.ar    1  UNL1        0.1726
     36 C          64.5556   82.0546   12.8596 C.3     1  UNL1        0.2526
     37 O          64.6140   83.5300   12.5956 O.3     1  UNL1       -0.4683
     38 O          62.3052   85.1582   13.6047 O.3     1  UNL1       -0.4684
     39 C          62.0349   83.9717   14.4818 C.3     1  UNL1        0.2526
@<TRIPOS>BOND
     1    36    37    1
     2    37    26    1
     3    26    27   ar
     4    27    28   ar
     5    28    29   ar
     6    29    30   ar
     7    30    31   ar
     8    31    32   ar
     9    32    25    1
    10    25     1    1
    11     1     2   ar
    12     2     3   ar
    13     3     4   ar
    14     4     5   ar
    15     5     7    1
    16     7     8   am
    17     8     9    2
    18     8    10   am
    19    10    13    1
    20    13    14   ar
    21    14    15   ar
    22    15    18    1
    23    18    19    1
    24    18    20    1
    25    18    21    1
    26    21    22    1
    27    21    23    1
    28    21    24    1
    29    15    16   ar
    30    16    17   ar
    31     5     6   ar
    32    32    33   ar
    33    33    34   ar
    34    34    35   ar
    35    35    38    1
    36    38    39    1
    37    35    26   ar
    38    33    28   ar
    39     6     1   ar
    40    17    13   ar
    41     7    11    1
    42    10    12    1
@<TRIPOS>MOLECULE
*****
 39 42 0 0 0
SMALL
GASTEIGER

@<TRIPOS>ATOM
      1 C          63.5310   88.6347   16.3845 C.ar    1  UNL1        0.1484
      2 C          63.0035   88.3886   17.7670 C.ar    1  UNL1        0.0376
      3 C          62.8375   86.9844   18.2674 C.ar    1  UNL1        0.0044
      4 C          63.1991   85.8262   17.3855 C.ar    1  UNL1        0.0149
      5 C          63.7267   86.0722   16.0031 C.ar    1  UNL1        0.0546
      6 C          63.8927   87.4766   15.5026 C.ar    1  UNL1        0.0522
      7 N          64.0883   84.9141   15.1211 N.am    1  UNL1       -0.2679
      8 C          63.7799   84.9636   13.6540 C.2     1  UNL1        0.3093
      9 O          63.1099   86.1714   13.0688 O.2     1  UNL1       -0.2521
     10 N          64.1415   83.8054   12.7721 N.am    1  UNL1       -0.2508
     11 H          64.5280   84.1214   15.5052 H       1  UNL1        0.1564
     12 H          64.5813   83.0127   13.1561 H       1  UNL1        0.1579
     13 C          63.8331   83.8550   11.3049 C.ar    1  UNL1        0.1771
     14 C          62.7836   84.7056   10.6530 C.ar    1  UNL1        0.0737
     15 C          62.8219   84.4390    9.1772 C.ar    1  UNL1        0.1629
     16 O          63.8951   83.4237    8.9173 O.2     1  UNL1       -0.3563
     17 N          64.5200   83.0628   10.2323 N.ar    1  UNL1       -0.0621
     18 C          61.9416   85.0759    8.1431 C.3     1  UNL1        0.1409
     19 C          61.1507   85.7446    9.2282 C.3     1  UNL1        0.0162
     20 C          62.7324   84.4072    7.0581 C.3     1  UNL1        0.0162
     21 C          61.0613   85.7128    7.1090 C.3     1  UNL1        0.4035
     22 F          60.1810   86.3497    6.0749 F       1  UNL1       -0.1696
     23 F          60.7977   86.8594    8.0395 F       1  UNL1       -0.1696
     24 F          61.3249   84.5663    6.1785 F       1  UNL1       -0.1696
     25 O          63.6970   90.0390   15.8841 O.3     1  UNL1       -0.4360
     26 C          66.3598   92.8205   12.0864 C.ar    1  UNL1        0.1739
     27 C          65.1052   92.3210   11.4333 C.ar    1  UNL1        0.0593
     28 C          64.1258   91.5008   12.2195 C.ar    1  UNL1        0.0908
     29 N          62.8713   91.0013   11.5664 N.ar    1  UNL1       -0.2237
     30 C          61.8920   90.1810   12.3526 C.ar    1  UNL1        0.2015
     31 N          62.1672   89.8603   13.7918 N.ar    1  UNL1       -0.1890
     32 C          63.4218   90.3598   14.4448 C.ar    1  UNL1        0.2325
     33 C          64.4011   91.1800   13.6587 C.ar    1  UNL1        0.0745
     34 C          65.6557   91.6795   14.3117 C.ar    1  UNL1        0.0462
     35 C          66.6350   92.4998   13.5256 C.ar    1  UNL1        0.1726
     36 C          66.9598   94.1702    9.9490 C.3     1  UNL1        0.2526
     37 O          67.3392   93.6408   11.3002 O.3     1  UNL1       -0.4683
     38 O          67.8897   92.9993   14.1786 O.3     1  UNL1       -0.4684
     39 C          67.8870   93.3522   15.6365 C.3     1  UNL1        0.2526
@<TRIPOS>BOND
     1    36    37    1
     2    37    26    1
     3    26    27   ar
     4    27    28   ar
     5    28    29   ar
     6    29    30   ar
     7    30    31   ar
     8    31    32   ar
     9    32    25    1
    10    25     1    1
    11     1     2   ar
    12     2     3   ar
    13     3     4   ar
    14     4     5   ar
    15     5     7    1
    16     7     8   am
    17     8     9    2
    18     8    10   am
    19    10    13    1
    20    13    14   ar
    21    14    15   ar
    22    15    18    1
    23    18    19    1
    24    18    20    1
    25    18    21    1
    26    21    22    1
    27    21    23    1
    28    21    24    1
    29    15    16   ar
    30    16    17   ar
    31     5     6   ar
    32    32    33   ar
    33    33    34   ar
    34    34    35   ar
    35    35    38    1
    36    38    39    1
    37    35    26   ar
    38    33    28   ar
    39     6     1   ar
    40    17    13   ar
    41     7    11    1
    42    10    12    1
@<TRIPOS>MOLECULE
*****
 39 42 0 0 0
SMALL
GASTEIGER

@<TRIPOS>ATOM
      1 C          62.2454   85.5124   10.3998 C.ar    1  UNL1        0.1484
      2 C          61.2731   85.5832    9.2598 C.ar    1  UNL1        0.0376
      3 C          60.5006   86.8445    9.0100 C.ar    1  UNL1        0.0044
      4 C          60.7005   88.0351    9.9003 C.ar    1  UNL1        0.0149
      5 C          61.6727   87.9643   11.0403 C.ar    1  UNL1        0.0546
      6 C          62.4452   86.7030   11.2901 C.ar    1  UNL1        0.0522
      7 N          61.8726   89.1549   11.9306 N.am    1  UNL1       -0.2679
      8 C          63.0186   90.0910   11.6851 C.2     1  UNL1        0.3093
      9 O          63.9648   89.8366   10.5493 O.2     1  UNL1       -0.2521
     10 N          63.2184   91.2816   12.5754 N.am    1  UNL1       -0.2508
     11 H          61.2515   89.3219   12.6760 H       1  UNL1        0.1564
     12 H          62.5974   91.4486   13.3208 H       1  UNL1        0.1579
     13 C          64.3645   92.2178   12.3299 C.ar    1  UNL1        0.1771
     14 C          64.7384   92.8267   11.0110 C.ar    1  UNL1        0.0737
     15 C          65.9429   93.6946   11.2261 C.ar    1  UNL1        0.1629
     16 O          66.3132   93.6220   12.6779 O.2     1  UNL1       -0.3563
     17 N          65.3377   92.7092   13.3600 N.ar    1  UNL1       -0.0621
     18 C          66.6524   94.4946   10.1742 C.3     1  UNL1        0.1409
     19 C          67.3004   93.2435    9.6597 C.3     1  UNL1        0.0162
     20 C          66.0044   95.7458   10.6886 C.3     1  UNL1        0.0162
     21 C          67.3618   95.2946    9.1222 C.3     1  UNL1        0.4035
     22 F          68.0713   96.0946    8.0703 F       1  UNL1       -0.1696
     23 F          67.9489   94.0342    8.5596 F       1  UNL1       -0.1696
     24 F          66.7748   96.5551    9.6848 F       1  UNL1       -0.1696
     25 O          63.0178   84.2511   10.6496 O.3     1  UNL1       -0.4360
     26 C          63.5992   85.3125   15.9208 C.ar    1  UNL1        0.1739
     27 C          63.0872   83.9053   15.8338 C.ar    1  UNL1        0.0593
     28 C          62.8139   83.2881   14.4942 C.ar    1  UNL1        0.0908
     29 N          62.3019   81.8809   14.4072 N.ar    1  UNL1       -0.2237
     30 C          62.0285   81.2638   13.0677 C.ar    1  UNL1        0.2015
     31 N          62.2672   82.0538   11.8151 N.ar    1  UNL1       -0.1890
     32 C          62.7792   83.4610   11.9021 C.ar    1  UNL1        0.2325
     33 C          63.0525   84.0782   13.2416 C.ar    1  UNL1        0.0745
     34 C          63.5645   85.4854   13.3287 C.ar    1  UNL1        0.0462
     35 C          63.8379   86.1025   14.6682 C.ar    1  UNL1        0.1726
     36 C          62.7401   86.4692   18.0827 C.3     1  UNL1        0.2526
     37 O          63.8726   85.9297   17.2603 O.3     1  UNL1       -0.4683
     38 O          64.3499   87.5098   14.7553 O.3     1  UNL1       -0.4684
     39 C          63.4788   88.5911   15.3227 C.3     1  UNL1        0.2526
@<TRIPOS>BOND
     1    36    37    1
     2    37    26    1
     3    26    27   ar
     4    27    28   ar
     5    28    29   ar
     6    29    30   ar
     7    30    31   ar
     8    31    32   ar
     9    32    25    1
    10    25     1    1
    11     1     2   ar
    12     2     3   ar
    13     3     4   ar
    14     4     5   ar
    15     5     7    1
    16     7     8   am
    17     8     9    2
    18     8    10   am
    19    10    13    1
    20    13    14   ar
    21    14    15   ar
    22    15    18    1
    23    18    19    1
    24    18    20    1
    25    18    21    1
    26    21    22    1
    27    21    23    1
    28    21    24    1
    29    15    16   ar
    30    16    17   ar
    31     5     6   ar
    32    32    33   ar
    33    33    34   ar
    34    34    35   ar
    35    35    38    1
    36    38    39    1
    37    35    26   ar
    38    33    28   ar
    39     6     1   ar
    40    17    13   ar
    41     7    11    1
    42    10    12    1
@<TRIPOS>MOLECULE
*****
 39 42 0 0 0
SMALL
GASTEIGER

@<TRIPOS>ATOM
      1 C          63.9462   90.8380   12.2564 C.ar    1  UNL1        0.1484
      2 C          64.8338   91.9784   12.6588 C.ar    1  UNL1        0.0376
      3 C          65.6504   91.8866   13.9136 C.ar    1  UNL1        0.0044
      4 C          65.5795   90.6545   14.7662 C.ar    1  UNL1        0.0149
      5 C          64.6920   89.5141   14.3639 C.ar    1  UNL1        0.0546
      6 C          63.8753   89.6059   13.1089 C.ar    1  UNL1        0.0522
      7 N          64.6211   88.2820   15.2164 N.am    1  UNL1       -0.2679
      8 C          64.0593   87.0108   14.6521 C.2     1  UNL1        0.3093
      9 O          63.5684   86.9717   13.2352 O.2     1  UNL1       -0.2521
     10 N          63.9884   85.7787   15.5046 N.am    1  UNL1       -0.2508
     11 H          64.9433   88.3076   16.1463 H       1  UNL1        0.1564
     12 H          64.3106   85.8043   16.4346 H       1  UNL1        0.1579
     13 C          63.4266   84.5075   14.9403 C.ar    1  UNL1        0.1771
     14 C          63.7783   83.9003   13.6145 C.ar    1  UNL1        0.0737
     15 C          62.9836   82.6378   13.4574 C.ar    1  UNL1        0.1629
     16 O          62.1407   82.4648   14.6862 O.2     1  UNL1       -0.3563
     17 N          62.4145   83.6203   15.6026 N.ar    1  UNL1       -0.0621
     18 C          63.0245   81.7111   12.2786 C.3     1  UNL1        0.1409
     19 C          63.8317   82.7185   11.5147 C.3     1  UNL1        0.0162
     20 C          62.2172   80.7038   13.0425 C.3     1  UNL1        0.0162
     21 C          63.0654   80.7845   11.0998 C.3     1  UNL1        0.4035
     22 F          63.1063   79.8578    9.9211 F       1  UNL1       -0.1696
     23 F          63.5469   81.9094   10.2322 F       1  UNL1       -0.1696
     24 F          62.5839   79.6596   11.9675 F       1  UNL1       -0.1696
     25 O          63.1296   90.9298   11.0016 O.3     1  UNL1       -0.4360
     26 C          60.7786   86.4970    8.9834 C.ar    1  UNL1        0.1739
     27 C          59.6834   87.2894    9.6333 C.ar    1  UNL1        0.0593
     28 C          59.9974   88.5958   10.3004 C.ar    1  UNL1        0.0908
     29 N          58.9022   89.3883   10.9503 N.ar    1  UNL1       -0.2237
     30 C          59.2161   90.6946   11.6173 C.ar    1  UNL1        0.2015
     31 N          60.6252   91.2084   11.6344 N.ar    1  UNL1       -0.1890
     32 C          61.7205   90.4160   10.9845 C.ar    1  UNL1        0.2325
     33 C          61.4065   89.1096   10.3175 C.ar    1  UNL1        0.0745
     34 C          62.5017   88.3171    9.6675 C.ar    1  UNL1        0.0462
     35 C          62.1878   87.0108    9.0005 C.ar    1  UNL1        0.1726
     36 C          60.4898   85.0874    6.8201 C.3     1  UNL1        0.2526
     37 O          60.4647   85.1906    8.3163 O.3     1  UNL1       -0.4683
     38 O          63.2830   86.2182    8.3505 O.3     1  UNL1       -0.4684
     39 C          63.4904   84.7800    8.7229 C.3     1  UNL1        0.2526
@<TRIPOS>BOND
     1    36    37    1
     2    37    26    1
     3    26    27   ar
     4    27    28   ar
     5    28    29   ar
     6    29    30   ar
     7    30    31   ar
     8    31    32   ar
     9    32    25    1
    10    25     1    1
    11     1     2   ar
    12     2     3   ar
    13     3     4   ar
    14     4     5   ar
    15     5     7    1
    16     7     8   am
    17     8     9    2
    18     8    10   am
    19    10    13    1
    20    13    14   ar
    21    14    15   ar
    22    15    18    1
    23    18    19    1
    24    18    20    1
    25    18    21    1
    26    21    22    1
    27    21    23    1
    28    21    24    1
    29    15    16   ar
    30    16    17   ar
    31     5     6   ar
    32    32    33   ar
    33    33    34   ar
    34    34    35   ar
    35    35    38    1
    36    38    39    1
    37    35    26   ar
    38    33    28   ar
    39     6     1   ar
    40    17    13   ar
    41     7    11    1
    42    10    12    1
@<TRIPOS>MOLECULE
*****
 39 42 0 0 0
SMALL
GASTEIGER

@<TRIPOS>ATOM
      1 C          62.8984   84.0946   14.0503 C.ar    1  UNL1        0.1484
      2 C          63.8265   83.1912   14.8071 C.ar    1  UNL1        0.0376
      3 C          64.5562   83.7053   16.0125 C.ar    1  UNL1        0.0044
      4 C          64.3578   85.1228   16.4613 C.ar    1  UNL1        0.0149
      5 C          63.4298   86.0262   15.7046 C.ar    1  UNL1        0.0546
      6 C          62.7001   85.5121   14.4991 C.ar    1  UNL1        0.0522
      7 N          63.2315   87.4437   16.1534 N.am    1  UNL1       -0.2679
      8 C          63.9412   88.5603   15.4469 C.2     1  UNL1        0.3093
      9 O          64.8492   88.2596   14.2914 O.2     1  UNL1       -0.2521
     10 N          63.7428   89.9778   15.8957 N.am    1  UNL1       -0.2508
     11 H          62.6355   87.6411   16.9118 H       1  UNL1        0.1564
     12 H          63.1468   90.1753   16.6540 H       1  UNL1        0.1579
     13 C          64.4526   91.0945   15.1890 C.ar    1  UNL1        0.1771
     14 C          64.5408   91.2826   13.7034 C.ar    1  UNL1        0.0737
     15 C          65.3414   92.5235   13.4401 C.ar    1  UNL1        0.1629
     16 O          65.7480   93.1022   14.7630 O.2     1  UNL1       -0.3563
     17 N          65.1986   92.2191   15.8438 N.ar    1  UNL1       -0.0621
     18 C          65.6766   93.0868   12.0909 C.3     1  UNL1        0.1409
     19 C          64.9337   91.9602   11.4360 C.3     1  UNL1        0.0162
     20 C          66.4195   94.2134   12.7458 C.3     1  UNL1        0.0162
     21 C          66.0118   93.6500   10.7417 C.3     1  UNL1        0.4035
     22 F          66.3470   94.2132    9.3925 F       1  UNL1       -0.1696
     23 F          65.7726   95.0367   11.2612 F       1  UNL1       -0.1696
     24 F          66.2510   92.2633   10.2222 F       1  UNL1       -0.1696
     25 O          62.1687   83.5805   12.8448 O.3     1  UNL1       -0.4360
     26 C          61.1790   87.7268    9.5164 C.ar    1  UNL1        0.1739
     27 C          62.1401   86.8319    8.7917 C.ar    1  UNL1        0.0593
     28 C          62.6279   85.5715    9.4426 C.ar    1  UNL1        0.0908
     29 N          63.5891   84.6766    8.7179 N.ar    1  UNL1       -0.2237
     30 C          64.0768   83.4163    9.3689 C.ar    1  UNL1        0.2015
     31 N          63.6033   83.0510   10.7445 N.ar    1  UNL1       -0.1890
     32 C          62.6422   83.9459   11.4692 C.ar    1  UNL1        0.2325
     33 C          62.1545   85.2062   10.8182 C.ar    1  UNL1        0.0745
     34 C          61.1932   86.1012   11.5429 C.ar    1  UNL1        0.0462
     35 C          60.7055   87.3615   10.8920 C.ar    1  UNL1        0.1726
     36 C          59.7004   88.9159    7.7415 C.3     1  UNL1        0.2526
     37 O          60.6912   88.9872    8.8654 O.3     1  UNL1       -0.4683
     38 O          59.7443   88.2565   11.6167 O.3     1  UNL1       -0.4684
     39 C          60.1229   89.6764   11.9175 C.3     1  UNL1        0.2526
@<TRIPOS>BOND
     1    36    37    1
     2    37    26    1
     3    26    27   ar
     4    27    28   ar
     5    28    29   ar
     6    29    30   ar
     7    30    31   ar
     8    31    32   ar
     9    32    25    1
    10    25     1    1
    11     1     2   ar
    12     2     3   ar
    13     3     4   ar
    14     4     5   ar
    15     5     7    1
    16     7     8   am
    17     8     9    2
    18     8    10   am
    19    10    13    1
    20    13    14   ar
    21    14    15   ar
    22    15    18    1
    23    18    19    1
    24    18    20    1
    25    18    21    1
    26    21    22    1
    27    21    23    1
    28    21    24    1
    29    15    16   ar
    30    16    17   ar
    31     5     6   ar
    32    32    33   ar
    33    33    34   ar
    34    34    35   ar
    35    35    38    1
    36    38    39    1
    37    35    26   ar
    38    33    28   ar
    39     6     1   ar
    40    17    13   ar
    41     7    11    1
    42    10    12    1
@<TRIPOS>MOLECULE
*****
 39 42 0 0 0
SMALL
GASTEIGER

@<TRIPOS>ATOM
      1 C          60.0058   87.9089    9.5776 C.ar    1  UNL1        0.1484
      2 C          59.8568   89.1543    8.7549 C.ar    1  UNL1        0.0376
      3 C          60.1196   90.4963    9.3714 C.ar    1  UNL1        0.0044
      4 C          60.5315   90.5928   10.8105 C.ar    1  UNL1        0.0149
      5 C          60.6805   89.3474   11.6332 C.ar    1  UNL1        0.0546
      6 C          60.4176   88.0054   11.0167 C.ar    1  UNL1        0.0522
      7 N          61.0924   89.4440   13.0723 N.am    1  UNL1       -0.2679
      8 C          62.3237   90.2128   13.4500 C.2     1  UNL1        0.3093
      9 O          63.1431   90.8852   12.3886 O.2     1  UNL1       -0.2521
     10 N          62.7356   90.3094   14.8891 N.am    1  UNL1       -0.2508
     11 H          60.5546   89.0027   13.7689 H       1  UNL1        0.1564
     12 H          62.1978   89.8681   15.5857 H       1  UNL1        0.1579
     13 C          63.9669   91.0783   15.2669 C.ar    1  UNL1        0.1771
     14 C          65.2923   91.0196   14.5669 C.ar    1  UNL1        0.0737
     15 C          66.2336   91.9459   15.2783 C.ar    1  UNL1        0.1629
     16 O          65.4898   92.5771   16.4178 O.2     1  UNL1       -0.3563
     17 N          64.0890   92.0409   16.4107 N.ar    1  UNL1       -0.0621
     18 C          67.6668   92.1970   14.9140 C.3     1  UNL1        0.1409
     19 C          67.3350   91.9907   13.4659 C.3     1  UNL1        0.0162
     20 C          67.9987   92.4033   16.3622 C.3     1  UNL1        0.0162
     21 C          69.1001   92.4480   14.5498 C.3     1  UNL1        0.4035
     22 F          70.5334   92.6991   14.1856 F       1  UNL1       -0.1696
     23 F          69.2764   93.2566   15.8008 F       1  UNL1       -0.1696
     24 F          68.9238   91.6394   13.2988 F       1  UNL1       -0.1696
     25 O          59.7429   86.5669    8.9611 O.3     1  UNL1       -0.4360
     26 C          63.8049   83.8282   11.2523 C.ar    1  UNL1        0.1739
     27 C          63.9696   83.6552    9.7715 C.ar    1  UNL1        0.0593
     28 C          62.9953   84.2967    8.8284 C.ar    1  UNL1        0.0908
     29 N          63.1601   84.1237    7.3476 N.ar    1  UNL1       -0.2237
     30 C          62.1858   84.7652    6.4046 C.ar    1  UNL1        0.2015
     31 N          61.0467   85.5796    6.9424 N.ar    1  UNL1       -0.1890
     32 C          60.8819   85.7525    8.4233 C.ar    1  UNL1        0.2325
     33 C          61.8562   85.1111    9.3662 C.ar    1  UNL1        0.0745
     34 C          61.6915   85.2841   10.8472 C.ar    1  UNL1        0.0462
     35 C          62.6658   84.6426   11.7901 C.ar    1  UNL1        0.1726
     36 C          64.3941   81.9430   12.9402 C.3     1  UNL1        0.2526
     37 O          64.7792   83.1868   12.1954 O.3     1  UNL1       -0.4683
     38 O          62.5011   84.8156   13.2710 O.3     1  UNL1       -0.4684
     39 C          63.5868   85.4668   14.0754 C.3     1  UNL1        0.2526
@<TRIPOS>BOND
     1    36    37    1
     2    37    26    1
     3    26    27   ar
     4    27    28   ar
     5    28    29   ar
     6    29    30   ar
     7    30    31   ar
     8    31    32   ar
     9    32    25    1
    10    25     1    1
    11     1     2   ar
    12     2     3   ar
    13     3     4   ar
    14     4     5   ar
    15     5     7    1
    16     7     8   am
    17     8     9    2
    18     8    10   am
    19    10    13    1
    20    13    14   ar
    21    14    15   ar
    22    15    18    1
    23    18    19    1
    24    18    20    1
    25    18    21    1
    26    21    22    1
    27    21    23    1
    28    21    24    1
    29    15    16   ar
    30    16    17   ar
    31     5     6   ar
    32    32    33   ar
    33    33    34   ar
    34    34    35   ar
    35    35    38    1
    36    38    39    1
    37    35    26   ar
    38    33    28   ar
    39     6     1   ar
    40    17    13   ar
    41     7    11    1
    42    10    12    1
@<TRIPOS>MOLECULE
*****
 39 42 0 0 0
SMALL
GASTEIGER

@<TRIPOS>ATOM
      1 C          65.3070   90.8958   14.9883 C.ar    1  UNL1        0.1484
      2 C          65.0185   92.0252   15.9324 C.ar    1  UNL1        0.0376
      3 C          64.0257   91.8406   17.0415 C.ar    1  UNL1        0.0044
      4 C          63.3213   90.5266   17.2066 C.ar    1  UNL1        0.0149
      5 C          63.6097   89.3972   16.2626 C.ar    1  UNL1        0.0546
      6 C          64.6026   89.5818   15.1534 C.ar    1  UNL1        0.0522
      7 N          62.9053   88.0832   16.4276 N.am    1  UNL1       -0.2679
      8 C          63.3961   86.8715   15.6922 C.2     1  UNL1        0.3093
      9 O          64.5914   86.9738   14.7916 O.2     1  UNL1       -0.2521
     10 N          62.6917   85.5575   15.8573 N.am    1  UNL1       -0.2508
     11 H          62.1209   88.0161   17.0187 H       1  UNL1        0.1564
     12 H          61.9073   85.4904   16.4483 H       1  UNL1        0.1579
     13 C          63.1826   84.3458   15.1218 C.ar    1  UNL1        0.1771
     14 C          62.7166   83.8846   13.7727 C.ar    1  UNL1        0.0737
     15 C          63.4716   82.6363   13.4233 C.ar    1  UNL1        0.1629
     16 O          64.4042   82.3263   14.5566 O.2     1  UNL1       -0.3563
     17 N          64.2256   83.3828   15.6062 N.ar    1  UNL1       -0.0621
     18 C          63.3205   81.8383   12.1622 C.3     1  UNL1        0.1409
     19 C          64.2241   82.7982   11.4466 C.3     1  UNL1        0.0162
     20 C          62.4170   80.8784   12.8779 C.3     1  UNL1        0.0162
     21 C          63.1695   81.0404   10.9012 C.3     1  UNL1        0.4035
     22 F          63.0184   80.2424    9.6401 F       1  UNL1       -0.1696
     23 F          62.6799   79.8695   11.7007 F       1  UNL1       -0.1696
     24 F          63.6590   82.2113   10.1016 F       1  UNL1       -0.1696
     25 O          66.2998   91.0804   13.8792 O.3     1  UNL1       -0.4360
     26 C          62.3679   90.3748   10.2333 C.ar    1  UNL1        0.1739
     27 C          63.1455   91.5745    9.7796 C.ar    1  UNL1        0.0593
     28 C          64.3230   92.0509   10.5777 C.ar    1  UNL1        0.0908
     29 N          65.1006   93.2506   10.1239 N.ar    1  UNL1       -0.2237
     30 C          66.2780   93.7269   10.9220 C.ar    1  UNL1        0.2015
     31 N          66.6777   93.0035   12.1737 N.ar    1  UNL1       -0.1890
     32 C          65.9001   91.8038   12.6274 C.ar    1  UNL1        0.2325
     33 C          64.7227   91.3275   11.8294 C.ar    1  UNL1        0.0745
     34 C          63.9450   90.1277   12.2831 C.ar    1  UNL1        0.0462
     35 C          62.7676   89.6514   11.4851 C.ar    1  UNL1        0.1726
     36 C          59.8112   89.9641   10.0213 C.3     1  UNL1        0.2526
     37 O          61.1905   89.8984    9.4353 O.3     1  UNL1       -0.4683
     38 O          61.9900   88.4516   11.9388 O.3     1  UNL1       -0.4684
     39 C          62.1663   87.1357   11.2408 C.3     1  UNL1        0.2526
@<TRIPOS>BOND
     1    36    37    1
     2    37    26    1
     3    26    27   ar
     4    27    28   ar
     5    28    29   ar
     6    29    30   ar
     7    30    31   ar
     8    31    32   ar
     9    32    25    1
    10    25     1    1
    11     1     2   ar
    12     2     3   ar
    13     3     4   ar
    14     4     5   ar
    15     5     7    1
    16     7     8   am
    17     8     9    2
    18     8    10   am
    19    10    13    1
    20    13    14   ar
    21    14    15   ar
    22    15    18    1
    23    18    19    1
    24    18    20    1
    25    18    21    1
    26    21    22    1
    27    21    23    1
    28    21    24    1
    29    15    16   ar
    30    16    17   ar
    31     5     6   ar
    32    32    33   ar
    33    33    34   ar
    34    34    35   ar
    35    35    38    1
    36    38    39    1
    37    35    26   ar
    38    33    28   ar
    39     6     1   ar
    40    17    13   ar
    41     7    11    1
    42    10    12    1
