@<TRIPOS>MOLECULE
*****
 33 37 0 0 0
SMALL
GASTEIGER

@<TRIPOS>ATOM
      1 O          61.3371   89.4748   10.0154 O.2     1  UNL1       -0.2744
      2 C          62.2258   88.9805   11.1180 C.2     1  UNL1        0.2322
      3 C          63.0934   90.0168   11.7688 C.3     1  UNL1        0.1309
      4 C          64.0787   89.8438   12.8864 C.2     1  UNL1        0.0682
      5 N          64.4401   88.5918   13.6292 N.2     1  UNL1       -0.2478
      6 C          63.9053   87.2035   13.4379 C.ar    1  UNL1        0.0973
      7 C          64.5372   86.2362   14.3945 C.ar    1  UNL1        0.0569
      8 C          64.1408   84.7896   14.3697 C.ar    1  UNL1        0.1352
      9 O          64.7727   83.8223   15.3262 O.3     1  UNL1       -0.5055
     10 C          63.1125   84.3106   13.3883 C.ar    1  UNL1        0.0372
     11 C          62.4806   85.2779   12.4317 C.ar    1  UNL1        0.0193
     12 C          62.8770   86.7244   12.4565 C.ar    1  UNL1        0.0684
     13 N          62.1296   87.5151   11.4241 N.am    1  UNL1       -0.2824
     14 H          65.4150   84.1216   15.9392 H       1  UNL1        0.2922
     15 H          61.4915   87.0050   10.8748 H       1  UNL1        0.1549
     16 C          62.7161   82.8641   13.3635 C.ar    1  UNL1        0.0304
     17 C          61.6985   82.3484   14.3375 C.ar    1  UNL1        0.0023
     18 C          61.3022   80.9020   14.3127 C.ar    1  UNL1        0.0001
     19 C          61.9234   79.9712   13.3138 C.ar    1  UNL1        0.0023
     20 C          62.9410   80.4868   12.3399 C.ar    1  UNL1        0.0296
     21 C          63.3374   81.9332   12.3646 C.ar    1  UNL1        0.1402
     22 F          64.3549   82.4489   11.3906 F       1  UNL1       -0.2042
     23 C          64.7979   91.0873   13.3182 C.ar    1  UNL1        0.0155
     24 C          65.1197   91.3026   14.7674 C.ar    1  UNL1        0.0013
     25 C          65.8389   92.5461   15.1993 C.ar    1  UNL1        0.0015
     26 C          66.2363   93.5743   14.1820 C.ar    1  UNL1        0.0176
     27 C          65.9145   93.3591   12.7328 C.ar    1  UNL1        0.0656
     28 C          65.1953   92.1156   12.3009 C.ar    1  UNL1        0.0187
     29 N          66.3119   94.3872   11.7156 N.ar    1  UNL1       -0.2864
     30 C          66.8425   94.1081   10.3406 C.ar    1  UNL1        0.1022
     31 C          67.1070   95.4235    9.6699 C.ar    1  UNL1        0.1196
     32 N          66.7398   96.5155   10.6303 N.ar    1  UNL1       -0.2220
     33 C          66.2484   95.8752   11.8946 C.ar    1  UNL1        0.1828
@<TRIPOS>BOND
     1     1     2    2
     2     2     3    1
     3     3     4    1
     4     4    23    1
     5    23    24   ar
     6    24    25   ar
     7    25    26   ar
     8    26    27   ar
     9    27    29    1
    10    29    30   ar
    11    30    31   ar
    12    31    32   ar
    13    32    33   ar
    14    27    28   ar
    15     4     5    2
    16     5     6    1
    17     6     7   ar
    18     7     8   ar
    19     8     9    1
    20     8    10   ar
    21    10    16    1
    22    16    17   ar
    23    17    18   ar
    24    18    19   ar
    25    19    20   ar
    26    20    21   ar
    27    21    22    1
    28    10    11   ar
    29    11    12   ar
    30    12    13    1
    31    13     2   am
    32    28    23   ar
    33    12     6   ar
    34    33    29   ar
    35    21    16   ar
    36     9    14    1
    37    13    15    1
@<TRIPOS>MOLECULE
*****
 33 37 0 0 0
SMALL
GASTEIGER

@<TRIPOS>ATOM
      1 O          62.3154   85.3726   12.9064 O.2     1  UNL1       -0.2744
      2 C          62.4211   86.7214   12.2585 C.2     1  UNL1        0.2322
      3 C          61.5782   86.9233   11.0342 C.3     1  UNL1        0.1309
      4 C          61.4618   88.1435   10.1698 C.2     1  UNL1        0.0682
      5 N          62.1594   89.4633   10.3160 N.2     1  UNL1       -0.2478
      6 C          63.1459   89.8888   11.3628 C.ar    1  UNL1        0.0973
      7 C          63.6047   91.2998   11.1422 C.ar    1  UNL1        0.0569
      8 C          64.5960   91.9216   12.0808 C.ar    1  UNL1        0.1352
      9 O          65.0548   93.3325   11.8602 O.3     1  UNL1       -0.5055
     10 C          65.1284   91.1323   13.2400 C.ar    1  UNL1        0.0372
     11 C          64.6696   89.7213   13.4605 C.ar    1  UNL1        0.0193
     12 C          63.6783   89.0995   12.5220 C.ar    1  UNL1        0.0684
     13 N          63.3558   87.6900   12.9206 N.am    1  UNL1       -0.2824
     14 H          64.7222   93.8255   11.1361 H       1  UNL1        0.2922
     15 H          63.8188   87.3565   13.7229 H       1  UNL1        0.1549
     16 C          66.1195   91.7541   14.1785 C.ar    1  UNL1        0.0304
     17 C          65.6944   92.1569   15.5594 C.ar    1  UNL1        0.0023
     18 C          66.6856   92.7787   16.4980 C.ar    1  UNL1        0.0001
     19 C          68.1020   92.9976   16.0555 C.ar    1  UNL1        0.0023
     20 C          68.5273   92.5948   14.6746 C.ar    1  UNL1        0.0296
     21 C          67.5361   91.9731   13.7361 C.ar    1  UNL1        0.1402
     22 F          67.9613   91.5703   12.3552 F       1  UNL1       -0.2042
     23 C          60.5235   88.0288    9.0051 C.ar    1  UNL1        0.0155
     24 C          59.7856   86.7461    8.7599 C.ar    1  UNL1        0.0013
     25 C          58.8474   86.6314    7.5952 C.ar    1  UNL1        0.0015
     26 C          58.6471   87.7995    6.6756 C.ar    1  UNL1        0.0176
     27 C          59.3850   89.0822    6.9207 C.ar    1  UNL1        0.0656
     28 C          60.3232   89.1969    8.0855 C.ar    1  UNL1        0.0187
     29 N          59.1847   90.2502    6.0012 N.ar    1  UNL1       -0.2864
     30 C          60.2661   91.0069    5.2886 C.ar    1  UNL1        0.1022
     31 C          59.6176   92.0910    4.4798 C.ar    1  UNL1        0.1196
     32 N          58.1354   92.0043    4.6925 N.ar    1  UNL1       -0.2220
     33 C          57.8677   90.8666    5.6329 C.ar    1  UNL1        0.1828
@<TRIPOS>BOND
     1     1     2    2
     2     2     3    1
     3     3     4    1
     4     4    23    1
     5    23    24   ar
     6    24    25   ar
     7    25    26   ar
     8    26    27   ar
     9    27    29    1
    10    29    30   ar
    11    30    31   ar
    12    31    32   ar
    13    32    33   ar
    14    27    28   ar
    15     4     5    2
    16     5     6    1
    17     6     7   ar
    18     7     8   ar
    19     8     9    1
    20     8    10   ar
    21    10    16    1
    22    16    17   ar
    23    17    18   ar
    24    18    19   ar
    25    19    20   ar
    26    20    21   ar
    27    21    22    1
    28    10    11   ar
    29    11    12   ar
    30    12    13    1
    31    13     2   am
    32    28    23   ar
    33    12     6   ar
    34    33    29   ar
    35    21    16   ar
    36     9    14    1
    37    13    15    1
@<TRIPOS>MOLECULE
*****
 33 37 0 0 0
SMALL
GASTEIGER

@<TRIPOS>ATOM
      1 O          61.7704   89.4313   10.4523 O.2     1  UNL1       -0.2744
      2 C          62.4570   88.6942   11.5638 C.2     1  UNL1        0.2322
      3 C          63.0571   89.5505   12.6394 C.3     1  UNL1        0.1309
      4 C          63.8011   89.1224   13.8694 C.2     1  UNL1        0.0682
      5 N          64.1289   87.7323   14.3278 N.2     1  UNL1       -0.2478
      6 C          63.7935   86.4269   13.6694 C.ar    1  UNL1        0.0973
      7 C          64.3101   85.2639   14.4634 C.ar    1  UNL1        0.0569
      8 C          64.0809   83.8633   13.9780 C.ar    1  UNL1        0.1352
      9 O          64.5975   82.7003   14.7720 O.3     1  UNL1       -0.5055
     10 C          63.3349   83.6257   12.6984 C.ar    1  UNL1        0.0372
     11 C          62.8183   84.7887   11.9044 C.ar    1  UNL1        0.0193
     12 C          63.0476   86.1894   12.3898 C.ar    1  UNL1        0.0684
     13 N          62.4528   87.1983   11.4528 N.am    1  UNL1       -0.2824
     14 H          65.0634   82.8487   15.5713 H       1  UNL1        0.2922
     15 H          61.9998   86.8300   10.6601 H       1  UNL1        0.1549
     16 C          63.1057   82.2251   12.2130 C.ar    1  UNL1        0.0304
     17 C          62.5524   81.1890   13.1460 C.ar    1  UNL1        0.0023
     18 C          62.3231   79.7884   12.6605 C.ar    1  UNL1        0.0001
     19 C          62.6472   79.4238   11.2420 C.ar    1  UNL1        0.0023
     20 C          63.2005   80.4598   10.3090 C.ar    1  UNL1        0.0296
     21 C          63.4298   81.8604   10.7945 C.ar    1  UNL1        0.1402
     22 F          63.9831   82.8965    9.8615 F       1  UNL1       -0.2042
     23 C          64.2808   90.2310   14.7587 C.ar    1  UNL1        0.0155
     24 C          63.3782   90.7839   15.8215 C.ar    1  UNL1        0.0013
     25 C          63.8579   91.8925   16.7108 C.ar    1  UNL1        0.0015
     26 C          65.2403   92.4483   16.5373 C.ar    1  UNL1        0.0176
     27 C          66.1430   91.8955   15.4745 C.ar    1  UNL1        0.0656
     28 C          65.6633   90.7869   14.5852 C.ar    1  UNL1        0.0187
     29 N          67.5253   92.4512   15.3009 N.ar    1  UNL1       -0.2864
     30 C          68.1581   93.5197   16.1423 C.ar    1  UNL1        0.1022
     31 C          69.5415   93.7649   15.6169 C.ar    1  UNL1        0.1196
     32 N          69.7638   92.8481   14.4509 N.ar    1  UNL1       -0.2220
     33 C          68.5177   92.0361   14.2555 C.ar    1  UNL1        0.1828
@<TRIPOS>BOND
     1     1     2    2
     2     2     3    1
     3     3     4    1
     4     4    23    1
     5    23    24   ar
     6    24    25   ar
     7    25    26   ar
     8    26    27   ar
     9    27    29    1
    10    29    30   ar
    11    30    31   ar
    12    31    32   ar
    13    32    33   ar
    14    27    28   ar
    15     4     5    2
    16     5     6    1
    17     6     7   ar
    18     7     8   ar
    19     8     9    1
    20     8    10   ar
    21    10    16    1
    22    16    17   ar
    23    17    18   ar
    24    18    19   ar
    25    19    20   ar
    26    20    21   ar
    27    21    22    1
    28    10    11   ar
    29    11    12   ar
    30    12    13    1
    31    13     2   am
    32    28    23   ar
    33    12     6   ar
    34    33    29   ar
    35    21    16   ar
    36     9    14    1
    37    13    15    1
