@<TRIPOS>MOLECULE
*****
 30 32 0 0 0
SMALL
GASTEIGER

@<TRIPOS>ATOM
      1 N          63.4235   85.3753   13.0449 N.ar    1  UNL1       -0.3134
      2 C          63.1079   83.9807   12.5917 C.ar    1  UNL1        0.1203
      3 N          62.2855   84.0748   11.3408 N.ar    1  UNL1       -0.2309
      4 C          62.0929   85.5276   11.0208 C.ar    1  UNL1        0.0996
      5 C          61.3680   86.2224    9.9065 C.ar    1  UNL1        0.0389
      6 C          61.3464   87.7210    9.8455 C.ar    1  UNL1        0.1073
      7 C          62.0497   88.5247   10.8987 C.ar    1  UNL1        0.0199
      8 C          62.7747   87.8299   12.0130 C.ar    1  UNL1        0.0201
      9 C          62.7962   86.3313   12.0741 C.ar    1  UNL1        0.0787
     10 S          60.6215   88.4158    8.7311 S.O2    1  UNL1        0.0097
     11 O          60.8256   89.7328    9.4195 O.2     1  UNL1       -0.1686
     12 O          60.4174   87.0989    8.0428 O.2     1  UNL1       -0.1686
     13 C          59.8966   89.1107    7.6168 C.3     1  UNL1        0.1655
     14 C          58.6307   88.8557    6.8536 C.3     1  UNL1        0.0979
     15 N          58.8714   90.0933    6.0410 N.3     1  UNL1       -0.2676
     16 C          60.1373   90.3483    6.8042 C.3     1  UNL1        0.0979
     17 C          58.1465   90.7882    4.9266 C.3     1  UNL1        0.1043
     18 C          56.7727   91.3444    5.1576 C.3     1  UNL1        0.1544
     19 O          55.6426   90.4262    5.5177 O.3     1  UNL1       -0.3805
     20 H          55.4552   89.8358    4.7712 H       1  UNL1        0.2105
     21 C          64.2256   85.7484   14.2563 C.3     1  UNL1        0.1245
     22 C          63.6375   85.5811   15.6260 C.3     1  UNL1        0.0970
     23 C          62.7164   86.6208   17.8215 C.3     1  UNL1        0.0897
     24 N          63.3075   86.7881   16.4531 N.3     1  UNL1       -0.2687
     25 C          63.5687   88.1625   15.9119 C.3     1  UNL1        0.0897
     26 C          63.5389   82.7143   13.2703 C.3     1  UNL1        0.0639
     27 C          62.5250   81.6616   13.6076 C.3     1  UNL1        0.0071
     28 C          62.0372   82.4983   14.7530 C.3     1  UNL1        0.0004
     29 C          63.0128   80.8249   12.4622 C.3     1  UNL1        0.0004
     30 C          61.5110   80.6088   13.9448 C.3     1  UNL1        0.0004
@<TRIPOS>BOND
     1    23    24    1
     2    24    25    1
     3    24    22    1
     4    22    21    1
     5    21     1    1
     6     1     2   ar
     7     2    26    1
     8    26    27    1
     9    27    28    1
    10    27    29    1
    11    27    30    1
    12     2     3   ar
    13     3     4   ar
    14     4     5   ar
    15     5     6   ar
    16     6    10    1
    17    10    11    2
    18    10    12    2
    19    10    13    1
    20    13    14    1
    21    14    15    1
    22    15    17    1
    23    17    18    1
    24    18    19    1
    25    15    16    1
    26     6     7   ar
    27     7     8   ar
    28     8     9   ar
    29     9     1   ar
    30     9     4   ar
    31    16    13    1
    32    19    20    1
@<TRIPOS>MOLECULE
*****
 30 32 0 0 0
SMALL
GASTEIGER

@<TRIPOS>ATOM
      1 N          63.1821   85.4514   12.6148 N.ar    1  UNL1       -0.3134
      2 C          63.6254   86.6113   13.4563 C.ar    1  UNL1        0.1203
      3 N          63.1526   87.8716   12.7944 N.ar    1  UNL1       -0.2309
      4 C          62.4172   87.4906   11.5438 C.ar    1  UNL1        0.0996
      5 C          61.7333   88.3124   10.4917 C.ar    1  UNL1        0.0389
      6 C          61.0676   87.6385    9.3287 C.ar    1  UNL1        0.1073
      7 C          61.0858   86.1427    9.2177 C.ar    1  UNL1        0.0199
      8 C          61.7697   85.3209   10.2698 C.ar    1  UNL1        0.0201
      9 C          62.4354   85.9948   11.4328 C.ar    1  UNL1        0.0787
     10 S          60.3837   88.4603    8.2766 S.O2    1  UNL1        0.0097
     11 O          60.7858   89.7143    8.9947 O.2     1  UNL1       -0.1686
     12 O          59.9815   87.2063    7.5585 O.2     1  UNL1       -0.1686
     13 C          59.6997   89.2821    7.2245 C.3     1  UNL1        0.1655
     14 C          60.1388   90.3308    6.2461 C.3     1  UNL1        0.0979
     15 N          58.7325   90.4442    5.7366 N.3     1  UNL1       -0.2676
     16 C          58.2935   89.3955    6.7150 C.3     1  UNL1        0.0979
     17 C          58.0485   91.2660    4.6845 C.3     1  UNL1        0.1043
     18 C          56.6069   91.6461    4.8493 C.3     1  UNL1        0.1544
     19 O          55.6169   90.6351    5.3469 O.3     1  UNL1       -0.3805
     20 H          55.5237   89.9248    4.6929 H       1  UNL1        0.2105
     21 C          63.4402   84.0024   12.9045 C.3     1  UNL1        0.1245
     22 C          62.4691   83.2195   13.7373 C.3     1  UNL1        0.0970
     23 C          62.9703   81.0897   12.3364 C.3     1  UNL1        0.0897
     24 N          62.1757   81.7877   13.4000 N.3     1  UNL1       -0.2687
     25 C          61.0876   81.0538   14.1264 C.3     1  UNL1        0.0897
     26 C          64.4046   86.5259   14.7352 C.3     1  UNL1        0.0639
     27 C          63.7510   86.8838   16.0370 C.3     1  UNL1        0.0071
     28 C          63.8724   88.3398   15.6976 C.3     1  UNL1        0.0004
     29 C          63.6296   85.4278   16.3764 C.3     1  UNL1        0.0004
     30 C          63.0974   87.2417   17.3388 C.3     1  UNL1        0.0004
@<TRIPOS>BOND
     1    23    24    1
     2    24    25    1
     3    24    22    1
     4    22    21    1
     5    21     1    1
     6     1     2   ar
     7     2    26    1
     8    26    27    1
     9    27    28    1
    10    27    29    1
    11    27    30    1
    12     2     3   ar
    13     3     4   ar
    14     4     5   ar
    15     5     6   ar
    16     6    10    1
    17    10    11    2
    18    10    12    2
    19    10    13    1
    20    13    14    1
    21    14    15    1
    22    15    17    1
    23    17    18    1
    24    18    19    1
    25    15    16    1
    26     6     7   ar
    27     7     8   ar
    28     8     9   ar
    29     9     1   ar
    30     9     4   ar
    31    16    13    1
    32    19    20    1
@<TRIPOS>MOLECULE
*****
 30 32 0 0 0
SMALL
GASTEIGER

@<TRIPOS>ATOM
      1 N          63.5669   84.1629   11.7630 N.ar    1  UNL1       -0.3134
      2 C          63.3541   84.8937   13.0555 C.ar    1  UNL1        0.1203
      3 N          62.5164   86.1049   12.7706 N.ar    1  UNL1       -0.2309
      4 C          62.2114   86.1226   11.3021 C.ar    1  UNL1        0.0996
      5 C          61.4263   87.0766   10.4515 C.ar    1  UNL1        0.0389
      6 C          61.2905   86.8303    8.9781 C.ar    1  UNL1        0.1073
      7 C          61.9397   85.6300    8.3553 C.ar    1  UNL1        0.0199
      8 C          62.7248   84.6761    9.2059 C.ar    1  UNL1        0.0201
      9 C          62.8606   84.9224   10.6793 C.ar    1  UNL1        0.0787
     10 S          60.5054   87.7843    8.1274 S.O2    1  UNL1        0.0097
     11 O          60.9773   88.9284    8.9749 O.2     1  UNL1       -0.1686
     12 O          60.0335   86.6402    7.2799 O.2     1  UNL1       -0.1686
     13 C          59.7204   88.7382    7.2767 C.3     1  UNL1        0.1655
     14 C          58.2640   88.9464    6.9839 C.3     1  UNL1        0.0979
     15 N          58.6101   90.0873    6.0737 N.3     1  UNL1       -0.2676
     16 C          60.0664   89.8792    6.3665 C.3     1  UNL1        0.0979
     17 C          57.8251   91.0413    5.2229 C.3     1  UNL1        0.1043
     18 C          58.4808   92.2766    4.6807 C.3     1  UNL1        0.1544
     19 O          58.9186   92.3256    3.2469 O.3     1  UNL1       -0.3805
     20 H          59.6344   91.6864    3.1054 H       1  UNL1        0.2105
     21 C          64.3486   82.8951   11.5853 C.3     1  UNL1        0.1245
     22 C          64.2576   81.8073   12.6141 C.3     1  UNL1        0.0970
     23 C          62.6888   79.9013   11.8041 C.3     1  UNL1        0.0897
     24 N          62.9910   81.0171   12.7600 N.3     1  UNL1       -0.2687
     25 C          62.0266   81.3426   13.8618 C.3     1  UNL1        0.0897
     26 C          63.8858   84.4851   14.3973 C.3     1  UNL1        0.0639
     27 C          63.5979   85.3257   15.6058 C.3     1  UNL1        0.0071
     28 C          62.4099   84.4659   15.9208 C.3     1  UNL1        0.0004
     29 C          64.7860   86.1855   15.2908 C.3     1  UNL1        0.0004
     30 C          63.3100   86.1664   16.8143 C.3     1  UNL1        0.0004
@<TRIPOS>BOND
     1    23    24    1
     2    24    25    1
     3    24    22    1
     4    22    21    1
     5    21     1    1
     6     1     2   ar
     7     2    26    1
     8    26    27    1
     9    27    28    1
    10    27    29    1
    11    27    30    1
    12     2     3   ar
    13     3     4   ar
    14     4     5   ar
    15     5     6   ar
    16     6    10    1
    17    10    11    2
    18    10    12    2
    19    10    13    1
    20    13    14    1
    21    14    15    1
    22    15    17    1
    23    17    18    1
    24    18    19    1
    25    15    16    1
    26     6     7   ar
    27     7     8   ar
    28     8     9   ar
    29     9     1   ar
    30     9     4   ar
    31    16    13    1
    32    19    20    1
@<TRIPOS>MOLECULE
*****
 30 32 0 0 0
SMALL
GASTEIGER

@<TRIPOS>ATOM
      1 N          65.0201   91.9228   13.2013 N.ar    1  UNL1       -0.3134
      2 C          64.5821   92.1357   11.7826 C.ar    1  UNL1        0.1203
      3 N          63.9655   90.8596   11.2914 N.ar    1  UNL1       -0.2309
      4 C          64.0225   89.8580   12.4066 C.ar    1  UNL1        0.0996
      5 C          63.5650   88.4325   12.4997 C.ar    1  UNL1        0.0389
      6 C          63.7594   87.6642   13.7731 C.ar    1  UNL1        0.1073
      7 C          64.4112   88.3213   14.9535 C.ar    1  UNL1        0.0199
      8 C          64.8686   89.7468   14.8604 C.ar    1  UNL1        0.0201
      9 C          64.6742   90.5151   13.5870 C.ar    1  UNL1        0.0787
     10 S          63.3020   86.2386   13.8663 S.O2    1  UNL1        0.0097
     11 O          63.6981   86.2059   15.3126 O.2     1  UNL1       -0.1686
     12 O          62.9059   86.2712   12.4199 O.2     1  UNL1       -0.1686
     13 C          62.8446   84.8131   13.9594 C.3     1  UNL1        0.1655
     14 C          62.3237   83.9360   15.0591 C.3     1  UNL1        0.0979
     15 N          62.1977   82.7971   14.0911 N.3     1  UNL1       -0.2676
     16 C          62.7185   83.6743   12.9913 C.3     1  UNL1        0.0979
     17 C          61.7402   81.3715   14.1841 C.3     1  UNL1        0.1043
     18 C          62.5465   80.2818   13.5421 C.3     1  UNL1        0.1544
     19 O          62.7961   80.3054   12.0632 O.3     1  UNL1       -0.3805
     20 H          61.9569   80.1856   11.5917 H       1  UNL1        0.2105
     21 C          65.6869   92.9392   14.0801 C.3     1  UNL1        0.1245
     22 C          67.0827   93.3951   13.7740 C.3     1  UNL1        0.0970
     23 C          68.7857   91.6120   12.9553 C.3     1  UNL1        0.0897
     24 N          68.2451   92.4872   14.0469 N.3     1  UNL1       -0.2687
     25 C          68.8670   92.4544   15.4116 C.3     1  UNL1        0.0897
     26 C          64.7340   93.4024   10.9935 C.3     1  UNL1        0.0639
     27 C          66.0860   93.8170   10.4936 C.3     1  UNL1        0.0071
     28 C          66.4245   92.3818   10.2189 C.3     1  UNL1        0.0004
     29 C          65.7475   95.2522   10.7683 C.3     1  UNL1        0.0004
     30 C          67.4381   94.2317    9.9936 C.3     1  UNL1        0.0004
@<TRIPOS>BOND
     1    23    24    1
     2    24    25    1
     3    24    22    1
     4    22    21    1
     5    21     1    1
     6     1     2   ar
     7     2    26    1
     8    26    27    1
     9    27    28    1
    10    27    29    1
    11    27    30    1
    12     2     3   ar
    13     3     4   ar
    14     4     5   ar
    15     5     6   ar
    16     6    10    1
    17    10    11    2
    18    10    12    2
    19    10    13    1
    20    13    14    1
    21    14    15    1
    22    15    17    1
    23    17    18    1
    24    18    19    1
    25    15    16    1
    26     6     7   ar
    27     7     8   ar
    28     8     9   ar
    29     9     1   ar
    30     9     4   ar
    31    16    13    1
    32    19    20    1
@<TRIPOS>MOLECULE
*****
 30 32 0 0 0
SMALL
GASTEIGER

@<TRIPOS>ATOM
      1 N          60.3679   88.0119    8.5890 N.ar    1  UNL1       -0.3134
      2 C          61.0139   86.6582    8.5998 C.ar    1  UNL1        0.1203
      3 N          62.1173   86.6793    9.6157 N.ar    1  UNL1       -0.2309
      4 C          62.1532   88.0460   10.2328 C.ar    1  UNL1        0.0996
      5 C          63.0306   88.6470   11.2905 C.ar    1  UNL1        0.0389
      6 C          62.8269   90.0715   11.7137 C.ar    1  UNL1        0.1073
      7 C          61.7457   90.8951   11.0791 C.ar    1  UNL1        0.0199
      8 C          60.8682   90.2942   10.0214 C.ar    1  UNL1        0.0201
      9 C          61.0719   88.8696    9.5982 C.ar    1  UNL1        0.0787
     10 S          63.7044   90.6726   12.7715 S.O2    1  UNL1        0.0097
     11 O          64.3211   91.5770   11.7461 O.2     1  UNL1       -0.1686
     12 O          63.0877   89.7681   13.7969 O.2     1  UNL1       -0.1686
     13 C          64.5818   91.2735   13.8293 C.3     1  UNL1        0.1655
     14 C          65.7956   92.1548   13.8258 C.3     1  UNL1        0.0979
     15 N          65.8227   92.1235   15.3252 N.3     1  UNL1       -0.2676
     16 C          64.6089   91.2422   15.3287 C.3     1  UNL1        0.0979
     17 C          66.7002   92.7244   16.3831 C.3     1  UNL1        0.1043
     18 C          68.1431   93.0087   16.0881 C.3     1  UNL1        0.1544
     19 O          68.9745   91.9931   15.3620 O.3     1  UNL1       -0.3805
     20 H          69.0745   91.2023   15.9147 H       1  UNL1        0.2105
     21 C          59.2194   88.4338    7.7213 C.3     1  UNL1        0.1245
     22 C          59.4471   88.7349    6.2696 C.3     1  UNL1        0.0970
     23 C          57.8569   90.7138    5.7173 C.3     1  UNL1        0.0897
     24 N          59.2366   90.1262    5.7501 N.3     1  UNL1       -0.2687
     25 C          60.4058   90.9299    5.2633 C.3     1  UNL1        0.0897
     26 C          60.6250   85.4888    7.7447 C.3     1  UNL1        0.0639
     27 C          61.6330   84.8620    6.8277 C.3     1  UNL1        0.0071
     28 C          60.5374   84.5051    5.8674 C.3     1  UNL1        0.0004
     29 C          62.7285   85.2188    7.7880 C.3     1  UNL1        0.0004
     30 C          62.6411   84.2351    5.9106 C.3     1  UNL1        0.0004
@<TRIPOS>BOND
     1    23    24    1
     2    24    25    1
     3    24    22    1
     4    22    21    1
     5    21     1    1
     6     1     2   ar
     7     2    26    1
     8    26    27    1
     9    27    28    1
    10    27    29    1
    11    27    30    1
    12     2     3   ar
    13     3     4   ar
    14     4     5   ar
    15     5     6   ar
    16     6    10    1
    17    10    11    2
    18    10    12    2
    19    10    13    1
    20    13    14    1
    21    14    15    1
    22    15    17    1
    23    17    18    1
    24    18    19    1
    25    15    16    1
    26     6     7   ar
    27     7     8   ar
    28     8     9   ar
    29     9     1   ar
    30     9     4   ar
    31    16    13    1
    32    19    20    1
@<TRIPOS>MOLECULE
*****
 30 32 0 0 0
SMALL
GASTEIGER

@<TRIPOS>ATOM
      1 N          64.1017   89.5274   13.9678 N.ar    1  UNL1       -0.3134
      2 C          63.5455   90.0773   12.6879 C.ar    1  UNL1        0.1203
      3 N          63.0918   88.9221   11.8456 N.ar    1  UNL1       -0.2309
      4 C          63.3676   87.6582   12.6049 C.ar    1  UNL1        0.0996
      5 C          63.1310   86.2150   12.2713 C.ar    1  UNL1        0.0389
      6 C          63.5187   85.1460   13.2495 C.ar    1  UNL1        0.1073
      7 C          64.1428   85.5201   14.5611 C.ar    1  UNL1        0.0199
      8 C          64.3794   86.9633   14.8947 C.ar    1  UNL1        0.0201
      9 C          63.9918   88.0323   13.9165 C.ar    1  UNL1        0.0787
     10 S          63.2821   83.7027   12.9160 S.O2    1  UNL1        0.0097
     11 O          63.4432   84.0133   11.4574 O.2     1  UNL1       -0.1686
     12 O          63.1210   83.3922   14.3746 O.2     1  UNL1       -0.1686
     13 C          63.0455   82.2596   12.5826 C.3     1  UNL1        0.1655
     14 C          62.5780   81.0570   13.3477 C.3     1  UNL1        0.0979
     15 N          62.7110   80.2185   12.1111 N.3     1  UNL1       -0.2676
     16 C          63.1785   81.4211   11.3460 C.3     1  UNL1        0.0979
     17 C          62.4744   78.7753   11.7776 C.3     1  UNL1        0.1043
     18 C          62.8282   78.2522   10.4170 C.3     1  UNL1        0.1544
     19 O          62.5763   79.0937    9.2011 O.3     1  UNL1       -0.3805
     20 H          61.6211   79.2158    9.0847 H       1  UNL1        0.2105
     21 C          64.6684   90.3314   15.1003 C.3     1  UNL1        0.1245
     22 C          65.9439   91.0976   14.9115 C.3     1  UNL1        0.0970
     23 C          65.2678   92.7007   16.8410 C.3     1  UNL1        0.0897
     24 N          66.2318   92.2970   15.7651 N.3     1  UNL1       -0.2687
     25 C          67.4838   93.0927   15.5427 C.3     1  UNL1        0.0897
     26 C          63.4583   91.5278   12.3157 C.3     1  UNL1        0.0639
     27 C          64.3827   92.0928   11.2784 C.3     1  UNL1        0.0071
     28 C          63.4642   91.6084   10.1960 C.3     1  UNL1        0.0004
     29 C          65.3012   92.5773   12.3607 C.3     1  UNL1        0.0004
     30 C          65.3072   92.6579   10.2410 C.3     1  UNL1        0.0004
@<TRIPOS>BOND
     1    23    24    1
     2    24    25    1
     3    24    22    1
     4    22    21    1
     5    21     1    1
     6     1     2   ar
     7     2    26    1
     8    26    27    1
     9    27    28    1
    10    27    29    1
    11    27    30    1
    12     2     3   ar
    13     3     4   ar
    14     4     5   ar
    15     5     6   ar
    16     6    10    1
    17    10    11    2
    18    10    12    2
    19    10    13    1
    20    13    14    1
    21    14    15    1
    22    15    17    1
    23    17    18    1
    24    18    19    1
    25    15    16    1
    26     6     7   ar
    27     7     8   ar
    28     8     9   ar
    29     9     1   ar
    30     9     4   ar
    31    16    13    1
    32    19    20    1
@<TRIPOS>MOLECULE
*****
 30 32 0 0 0
SMALL
GASTEIGER

@<TRIPOS>ATOM
      1 N          61.8508   86.0711   11.3650 N.ar    1  UNL1       -0.3134
      2 C          62.3959   84.9432   12.1901 C.ar    1  UNL1        0.1203
      3 N          63.3952   85.5137   13.1524 N.ar    1  UNL1       -0.2309
      4 C          63.4677   86.9941   12.9221 C.ar    1  UNL1        0.0996
      5 C          64.2795   88.0730   13.5755 C.ar    1  UNL1        0.0389
      6 C          64.1368   89.4963   13.1243 C.ar    1  UNL1        0.1073
      7 C          63.1823   89.8409   12.0196 C.ar    1  UNL1        0.0199
      8 C          62.3705   88.7620   11.3662 C.ar    1  UNL1        0.0201
      9 C          62.5132   87.3387   11.8174 C.ar    1  UNL1        0.0787
     10 S          64.9487   90.5753   13.7777 S.O2    1  UNL1        0.0097
     11 O          64.7908   91.4331   12.5574 O.2     1  UNL1       -0.1686
     12 O          65.1065   89.7174   14.9980 O.2     1  UNL1       -0.1686
     13 C          65.7605   91.6541   14.4311 C.3     1  UNL1        0.1655
     14 C          66.9055   92.5248   14.0058 C.3     1  UNL1        0.0979
     15 N          66.9086   93.1799   15.3552 N.3     1  UNL1       -0.2676
     16 C          65.7636   92.3092   15.7805 C.3     1  UNL1        0.0979
     17 C          67.7204   94.2588   16.0087 C.3     1  UNL1        0.1043
     18 C          69.2166   94.1565   16.0405 C.3     1  UNL1        0.1544
     19 O          69.9359   93.3557   14.9959 O.3     1  UNL1       -0.3805
     20 H          69.7070   92.4180   15.0928 H       1  UNL1        0.2105
     21 C          60.8237   85.9524   10.2784 C.3     1  UNL1        0.1245
     22 C          61.0662   86.5926    8.9438 C.3     1  UNL1        0.0970
     23 C          58.9151   86.8826    7.5160 C.3     1  UNL1        0.0897
     24 N          60.0202   87.4794    8.3361 N.3     1  UNL1       -0.2687
     25 C          60.0792   88.9631    8.5486 C.3     1  UNL1        0.0897
     26 C          62.0096   83.4985   12.0733 C.3     1  UNL1        0.0639
     27 C          62.9461   82.4305   12.5550 C.3     1  UNL1        0.0071
     28 C          63.7603   82.5803   11.3042 C.3     1  UNL1        0.0004
     29 C          62.1319   82.2806   13.8058 C.3     1  UNL1        0.0004
     30 C          63.8827   81.3623   13.0368 C.3     1  UNL1        0.0004
@<TRIPOS>BOND
     1    23    24    1
     2    24    25    1
     3    24    22    1
     4    22    21    1
     5    21     1    1
     6     1     2   ar
     7     2    26    1
     8    26    27    1
     9    27    28    1
    10    27    29    1
    11    27    30    1
    12     2     3   ar
    13     3     4   ar
    14     4     5   ar
    15     5     6   ar
    16     6    10    1
    17    10    11    2
    18    10    12    2
    19    10    13    1
    20    13    14    1
    21    14    15    1
    22    15    17    1
    23    17    18    1
    24    18    19    1
    25    15    16    1
    26     6     7   ar
    27     7     8   ar
    28     8     9   ar
    29     9     1   ar
    30     9     4   ar
    31    16    13    1
    32    19    20    1
@<TRIPOS>MOLECULE
*****
 30 32 0 0 0
SMALL
GASTEIGER

@<TRIPOS>ATOM
      1 N          61.2807   93.7897   -0.9331 N.ar    1  UNL1       -0.3134
      2 C          61.2767   94.3272    0.4672 C.ar    1  UNL1        0.1203
      3 N          59.9296   94.9337    0.7270 N.ar    1  UNL1       -0.2309
      4 C          59.1010   94.7709   -0.5127 C.ar    1  UNL1        0.0996
      5 C          57.6941   95.1752   -0.8399 C.ar    1  UNL1        0.0389
      6 C          57.1223   94.8724   -2.1931 C.ar    1  UNL1        0.1073
      7 C          57.9573   94.1654   -3.2192 C.ar    1  UNL1        0.0199
      8 C          59.3642   93.7611   -2.8920 C.ar    1  UNL1        0.0201
      9 C          59.9361   94.0639   -1.5388 C.ar    1  UNL1        0.0787
     10 S          55.7153   95.2767   -2.5204 S.O2    1  UNL1        0.0097
     11 O          55.2228   93.9377   -2.0572 O.2     1  UNL1       -0.1686
     12 O          56.2078   96.6156   -2.9836 O.2     1  UNL1       -0.1686
     13 C          54.3084   95.6810   -2.8476 C.3     1  UNL1        0.1655
     14 C          53.6199   96.2416   -4.0566 C.3     1  UNL1        0.0979
     15 N          52.3187   96.2527   -3.3104 N.3     1  UNL1       -0.2676
     16 C          53.0072   95.6921   -2.1014 C.3     1  UNL1        0.0979
     17 C          50.9117   96.6570   -3.6377 C.3     1  UNL1        0.1043
     18 C          50.1962   96.0170   -4.7902 C.3     1  UNL1        0.1544
     19 O          50.9577   95.6267   -6.0222 O.3     1  UNL1       -0.3805
     20 H          51.2924   96.4241   -6.4616 H       1  UNL1        0.2105
     21 C          62.4279   93.0991   -1.6091 C.3     1  UNL1        0.1245
     22 C          63.4414   93.9000   -2.3716 C.3     1  UNL1        0.0970
     23 C          64.4533   95.9644   -1.1615 C.3     1  UNL1        0.0897
     24 N          63.5193   95.3860   -2.1828 N.3     1  UNL1       -0.2687
     25 C          62.6631   96.2937   -3.0153 C.3     1  UNL1        0.0897
     26 C          62.4192   94.2687    1.4375 C.3     1  UNL1        0.0639
     27 C          62.8475   92.9514    2.0131 C.3     1  UNL1        0.0071
     28 C          61.4687   92.7450    2.5665 C.3     1  UNL1        0.0004
     29 C          64.2263   93.1579    1.4598 C.3     1  UNL1        0.0004
     30 C          63.2758   91.6341    2.5888 C.3     1  UNL1        0.0004
@<TRIPOS>BOND
     1    23    24    1
     2    24    25    1
     3    24    22    1
     4    22    21    1
     5    21     1    1
     6     1     2   ar
     7     2    26    1
     8    26    27    1
     9    27    28    1
    10    27    29    1
    11    27    30    1
    12     2     3   ar
    13     3     4   ar
    14     4     5   ar
    15     5     6   ar
    16     6    10    1
    17    10    11    2
    18    10    12    2
    19    10    13    1
    20    13    14    1
    21    14    15    1
    22    15    17    1
    23    17    18    1
    24    18    19    1
    25    15    16    1
    26     6     7   ar
    27     7     8   ar
    28     8     9   ar
    29     9     1   ar
    30     9     4   ar
    31    16    13    1
    32    19    20    1
@<TRIPOS>MOLECULE
*****
 30 32 0 0 0
SMALL
GASTEIGER

@<TRIPOS>ATOM
      1 N          58.7916   94.8631   -0.0730 N.ar    1  UNL1       -0.3134
      2 C          58.8294   93.3650   -0.1383 C.ar    1  UNL1        0.1203
      3 N          57.6247   92.9040   -0.9039 N.ar    1  UNL1       -0.2309
      4 C          56.8424   94.1171   -1.3118 C.ar    1  UNL1        0.0996
      5 C          55.5666   94.2756   -2.0845 C.ar    1  UNL1        0.0389
      6 C          55.0120   95.6450   -2.3437 C.ar    1  UNL1        0.1073
      7 C          55.7332   96.8558   -1.8301 C.ar    1  UNL1        0.0199
      8 C          57.0090   96.6973   -1.0574 C.ar    1  UNL1        0.0201
      9 C          57.5636   95.3279   -0.7983 C.ar    1  UNL1        0.0787
     10 S          53.7361   95.8035   -3.1164 S.O2    1  UNL1        0.0097
     11 O          54.5013   95.6957   -4.4020 O.2     1  UNL1       -0.1686
     12 O          52.9709   95.9114   -1.8308 O.2     1  UNL1       -0.1686
     13 C          52.4603   95.9621   -3.8891 C.3     1  UNL1        0.1655
     14 C          51.0021   95.8100   -3.5716 C.3     1  UNL1        0.0979
     15 N          50.6559   96.1863   -4.9818 N.3     1  UNL1       -0.2676
     16 C          52.1140   96.3384   -5.2992 C.3     1  UNL1        0.0979
     17 C          49.3800   96.3449   -5.7545 C.3     1  UNL1        0.1043
     18 C          48.9452   95.2753   -6.7120 C.3     1  UNL1        0.1544
     19 O          48.2094   94.0700   -6.2064 O.3     1  UNL1       -0.3805
     20 H          48.7959   93.5487   -5.6362 H       1  UNL1        0.2105
     21 C          59.8041   95.7421    0.5995 C.3     1  UNL1        0.1245
     22 C          60.7167   96.6012   -0.2244 C.3     1  UNL1        0.0970
     23 C          62.5409   96.8197    1.6125 C.3     1  UNL1        0.0897
     24 N          62.1576   96.7525    0.1639 N.3     1  UNL1       -0.2687
     25 C          63.2153   96.8366   -0.8964 C.3     1  UNL1        0.0897
     26 C          59.8862   92.4829    0.4575 C.3     1  UNL1        0.0639
     27 C          61.3311   92.8742    0.3621 C.3     1  UNL1        0.0071
     28 C          61.4555   92.7784    1.8538 C.3     1  UNL1        0.0004
     29 C          61.2067   92.9699   -1.1296 C.3     1  UNL1        0.0004
     30 C          62.7761   93.2655    0.2666 C.3     1  UNL1        0.0004
@<TRIPOS>BOND
     1    23    24    1
     2    24    25    1
     3    24    22    1
     4    22    21    1
     5    21     1    1
     6     1     2   ar
     7     2    26    1
     8    26    27    1
     9    27    28    1
    10    27    29    1
    11    27    30    1
    12     2     3   ar
    13     3     4   ar
    14     4     5   ar
    15     5     6   ar
    16     6    10    1
    17    10    11    2
    18    10    12    2
    19    10    13    1
    20    13    14    1
    21    14    15    1
    22    15    17    1
    23    17    18    1
    24    18    19    1
    25    15    16    1
    26     6     7   ar
    27     7     8   ar
    28     8     9   ar
    29     9     1   ar
    30     9     4   ar
    31    16    13    1
    32    19    20    1
