@<TRIPOS>MOLECULE
*****
 29 31 0 0 0
SMALL
GASTEIGER

@<TRIPOS>ATOM
      1 C          64.2124   89.4067   13.8426 C.ar    1  UNL1        0.0534
      2 C          63.5011   89.0099   12.5831 C.ar    1  UNL1        0.0045
      3 C          63.0825   87.5846   12.3753 C.ar    1  UNL1        0.0001
      4 C          63.3753   86.5560   13.4270 C.ar    1  UNL1       -0.0002
      5 C          62.9568   85.1306   13.2193 C.ar    1  UNL1       -0.0017
      6 C          63.2496   84.1020   14.2710 C.ar    1  UNL1        0.0070
      7 C          63.9609   84.4988   15.5306 C.ar    1  UNL1       -0.0017
      8 C          64.3795   85.9241   15.7384 C.ar    1  UNL1       -0.0002
      9 C          64.0867   86.9527   14.6866 C.ar    1  UNL1        0.0001
     10 C          64.5052   88.3781   14.8944 C.ar    1  UNL1        0.0045
     11 N          65.8678   91.3555   13.3824 N.am    1  UNL1       -0.3025
     12 C          64.6310   90.8320   14.0504 C.2     1  UNL1        0.2458
     13 O          63.8128   91.7339   14.9262 O.2     1  UNL1       -0.2701
     14 H          66.4048   90.7636   12.8075 H       1  UNL1        0.1497
     15 C          66.1525   93.7724   12.4725 C.3     1  UNL1        0.0213
     16 C          66.2863   92.7809   13.5902 C.3     1  UNL1        0.0720
     17 C          66.8387   93.2147   14.9155 C.3     1  UNL1        0.0213
     18 C          62.8310   82.6767   14.0632 C.3     1  UNL1        0.1410
     19 O          62.2851   82.6334   15.4597 O.3     1  UNL1       -0.3771
     20 H          62.4226   83.4931   15.8874 H       1  UNL1        0.2112
     21 C          63.3769   82.7200   12.6668 C.ar    1  UNL1        0.0825
     22 C          64.8210   82.8663   12.2889 C.ar    1  UNL1        0.1157
     23 N          64.9111   82.8613   10.7916 N.ar    1  UNL1       -0.2228
     24 C          63.5226   82.7118   10.2442 C.ar    1  UNL1        0.1749
     25 N          62.5744   82.6245   11.4031 N.ar    1  UNL1       -0.3361
     26 H          61.5969   82.5224   11.3447 H       1  UNL1        0.1673
     27 C          62.4124   81.2513   13.8554 C.3     1  UNL1        0.0340
     28 C          63.4407   80.2063   13.5385 C.3     1  UNL1        0.0031
     29 C          60.9655   80.8710   13.9646 C.3     1  UNL1        0.0031
@<TRIPOS>BOND
     1    15    16    1
     2    16    17    1
     3    16    11    1
     4    11    12   am
     5    12    13    2
     6    12     1    1
     7     1     2   ar
     8     2     3   ar
     9     3     4   ar
    10     4     5   ar
    11     5     6   ar
    12     6    18    1
    13    18    19    1
    14    18    21    1
    15    21    22   ar
    16    22    23   ar
    17    23    24   ar
    18    24    25   ar
    19    18    27    1
    20    27    28    1
    21    27    29    1
    22     6     7   ar
    23     7     8   ar
    24     8     9   ar
    25     9    10   ar
    26    10     1   ar
    27     9     4   ar
    28    25    21   ar
    29    11    14    1
    30    19    20    1
    31    25    26    1
@<TRIPOS>MOLECULE
*****
 29 31 0 0 0
SMALL
GASTEIGER

@<TRIPOS>ATOM
      1 C          65.2659   91.9129   13.5350 C.ar    1  UNL1        0.0534
      2 C          65.5344   92.3417   12.1229 C.ar    1  UNL1        0.0045
      3 C          64.6646   91.8403   11.0085 C.ar    1  UNL1        0.0001
      4 C          63.5262   90.9100   11.3061 C.ar    1  UNL1       -0.0002
      5 C          62.6564   90.4085   10.1917 C.ar    1  UNL1       -0.0017
      6 C          61.5181   89.4782   10.4894 C.ar    1  UNL1        0.0070
      7 C          61.2495   89.0493   11.9015 C.ar    1  UNL1       -0.0017
      8 C          62.1194   89.5507   13.0159 C.ar    1  UNL1       -0.0002
      9 C          63.2577   90.4811   12.7182 C.ar    1  UNL1        0.0001
     10 C          64.1276   90.9825   13.8326 C.ar    1  UNL1        0.0045
     11 N          67.6226   92.4877   14.4653 N.am    1  UNL1       -0.3025
     12 C          66.1358   92.4143   14.6494 C.2     1  UNL1        0.2458
     13 O          65.5188   92.8423   15.9478 O.2     1  UNL1       -0.2701
     14 H          68.0276   92.2068   13.6131 H       1  UNL1        0.1497
     15 C          69.0482   92.0276   16.5881 C.3     1  UNL1        0.0213
     16 C          68.4925   92.9892   15.5797 C.3     1  UNL1        0.0720
     17 C          68.8065   94.4520   15.6858 C.3     1  UNL1        0.0213
     18 C          60.6482   88.9767    9.3750 C.3     1  UNL1        0.1410
     19 O          60.0573   90.3467    9.2197 O.3     1  UNL1       -0.3771
     20 H          60.4603   90.9477    9.8657 H       1  UNL1        0.2112
     21 C          61.2391   87.6068    9.5302 C.ar    1  UNL1        0.0825
     22 C          60.9163   86.6255   10.6177 C.ar    1  UNL1        0.1157
     23 N          61.7342   85.3899   10.3848 N.ar    1  UNL1       -0.2228
     24 C          62.5625   85.6076    9.1533 C.ar    1  UNL1        0.1749
     25 N          62.2564   86.9778    8.6251 N.ar    1  UNL1       -0.3361
     26 H          62.6536   87.3915    7.8249 H       1  UNL1        0.1673
     27 C          59.7784   88.4753    8.2606 C.3     1  UNL1        0.0340
     28 C          59.0628   87.1643    8.3994 C.3     1  UNL1        0.0031
     29 C          59.6240   89.2849    7.0072 C.3     1  UNL1        0.0031
@<TRIPOS>BOND
     1    15    16    1
     2    16    17    1
     3    16    11    1
     4    11    12   am
     5    12    13    2
     6    12     1    1
     7     1     2   ar
     8     2     3   ar
     9     3     4   ar
    10     4     5   ar
    11     5     6   ar
    12     6    18    1
    13    18    19    1
    14    18    21    1
    15    21    22   ar
    16    22    23   ar
    17    23    24   ar
    18    24    25   ar
    19    18    27    1
    20    27    28    1
    21    27    29    1
    22     6     7   ar
    23     7     8   ar
    24     8     9   ar
    25     9    10   ar
    26    10     1   ar
    27     9     4   ar
    28    25    21   ar
    29    11    14    1
    30    19    20    1
    31    25    26    1
@<TRIPOS>MOLECULE
*****
 29 31 0 0 0
SMALL
GASTEIGER

@<TRIPOS>ATOM
      1 C          61.7471   88.8049   10.3784 C.ar    1  UNL1        0.0534
      2 C          62.0316   90.1610    9.8040 C.ar    1  UNL1        0.0045
      3 C          62.9558   91.1003   10.5206 C.ar    1  UNL1        0.0001
      4 C          63.5956   90.6834   11.8116 C.ar    1  UNL1       -0.0002
      5 C          64.5198   91.6227   12.5283 C.ar    1  UNL1       -0.0017
      6 C          65.1596   91.2059   13.8193 C.ar    1  UNL1        0.0070
      7 C          64.8752   89.8497   14.3938 C.ar    1  UNL1       -0.0017
      8 C          63.9510   88.9104   13.6772 C.ar    1  UNL1       -0.0002
      9 C          63.3112   89.3273   12.3861 C.ar    1  UNL1        0.0001
     10 C          62.3869   88.3880   11.6694 C.ar    1  UNL1        0.0045
     11 N          61.2898   87.1482    8.4300 N.am    1  UNL1       -0.3025
     12 C          60.8229   87.8656    9.6618 C.2     1  UNL1        0.2458
     13 O          59.4317   87.6437   10.1769 O.2     1  UNL1       -0.2701
     14 H          62.2029   87.2938    8.0919 H       1  UNL1        0.1497
     15 C          60.9039   84.9517    7.0971 C.3     1  UNL1        0.0213
     16 C          60.3656   86.2089    7.7134 C.3     1  UNL1        0.0720
     17 C          58.9031   86.5268    7.6130 C.3     1  UNL1        0.0213
     18 C          66.0838   92.1452   14.5359 C.3     1  UNL1        0.1410
     19 O          65.1316   92.1989   15.6937 O.3     1  UNL1       -0.3771
     20 H          64.3629   91.6378   15.5063 H       1  UNL1        0.2112
     21 C          67.0361   92.0915   13.3782 C.ar    1  UNL1        0.0825
     22 C          66.7960   92.6622   12.0120 C.ar    1  UNL1        0.1157
     23 N          68.0071   92.3811   11.1729 N.ar    1  UNL1       -0.2228
     24 C          68.9957   91.6366   12.0205 C.ar    1  UNL1        0.1749
     25 N          68.3955   91.4576   13.3835 N.ar    1  UNL1       -0.3361
     26 H          68.8194   91.0038   14.1474 H       1  UNL1        0.1673
     27 C          67.0081   93.0844   15.2526 C.3     1  UNL1        0.0340
     28 C          67.6836   92.6507   16.5196 C.3     1  UNL1        0.0031
     29 C          67.2568   94.4575   14.7020 C.3     1  UNL1        0.0031
@<TRIPOS>BOND
     1    15    16    1
     2    16    17    1
     3    16    11    1
     4    11    12   am
     5    12    13    2
     6    12     1    1
     7     1     2   ar
     8     2     3   ar
     9     3     4   ar
    10     4     5   ar
    11     5     6   ar
    12     6    18    1
    13    18    19    1
    14    18    21    1
    15    21    22   ar
    16    22    23   ar
    17    23    24   ar
    18    24    25   ar
    19    18    27    1
    20    27    28    1
    21    27    29    1
    22     6     7   ar
    23     7     8   ar
    24     8     9   ar
    25     9    10   ar
    26    10     1   ar
    27     9     4   ar
    28    25    21   ar
    29    11    14    1
    30    19    20    1
    31    25    26    1
@<TRIPOS>MOLECULE
*****
 29 31 0 0 0
SMALL
GASTEIGER

@<TRIPOS>ATOM
      1 C          59.5507   90.3303    5.9676 C.ar    1  UNL1        0.0534
      2 C          58.3451   91.1197    5.5513 C.ar    1  UNL1        0.0045
      3 C          58.4441   92.0991    4.4195 C.ar    1  UNL1        0.0001
      4 C          59.7487   92.2892    3.7041 C.ar    1  UNL1       -0.0002
      5 C          59.8477   93.2686    2.5723 C.ar    1  UNL1       -0.0017
      6 C          61.1523   93.4587    1.8569 C.ar    1  UNL1        0.0070
      7 C          62.3580   92.6693    2.2733 C.ar    1  UNL1       -0.0017
      8 C          62.2590   91.6899    3.4050 C.ar    1  UNL1       -0.0002
      9 C          60.9543   91.4998    4.1205 C.ar    1  UNL1        0.0001
     10 C          60.8553   90.5204    5.2522 C.ar    1  UNL1        0.0045
     11 N          60.4312   89.4139    8.2336 N.am    1  UNL1       -0.3025
     12 C          59.4517   89.3509    7.0994 C.2     1  UNL1        0.2458
     13 O          58.3732   88.3084    7.0969 O.2     1  UNL1       -0.2701
     14 H          61.1391   90.0981    8.2353 H       1  UNL1        0.1497
     15 C          59.9248   88.9043   10.7304 C.3     1  UNL1        0.0213
     16 C          60.3322   88.4344    9.3654 C.3     1  UNL1        0.0720
     17 C          60.6405   86.9851    9.1322 C.3     1  UNL1        0.0213
     18 C          61.2513   94.4381    0.7252 C.3     1  UNL1        0.1410
     19 O          62.4492   95.0663    1.3736 O.3     1  UNL1       -0.3771
     20 H          62.6470   94.6046    2.2034 H       1  UNL1        0.2112
     21 C          60.0535   93.8099    0.0767 C.ar    1  UNL1        0.0825
     22 C          59.9922   92.4333   -0.5158 C.ar    1  UNL1        0.1157
     23 N          58.6074   92.2206   -1.0518 N.ar    1  UNL1       -0.2228
     24 C          57.8130   93.4658   -0.7905 C.ar    1  UNL1        0.1749
     25 N          58.7067   94.4481   -0.0930 N.ar    1  UNL1       -0.3361
     26 H          58.4537   95.3527    0.2016 H       1  UNL1        0.1673
     27 C          61.3503   95.4176   -0.4066 C.3     1  UNL1        0.0340
     28 C          60.9349   96.8443   -0.2023 C.3     1  UNL1        0.0031
     29 C          61.8648   94.9702   -1.7428 C.3     1  UNL1        0.0031
@<TRIPOS>BOND
     1    15    16    1
     2    16    17    1
     3    16    11    1
     4    11    12   am
     5    12    13    2
     6    12     1    1
     7     1     2   ar
     8     2     3   ar
     9     3     4   ar
    10     4     5   ar
    11     5     6   ar
    12     6    18    1
    13    18    19    1
    14    18    21    1
    15    21    22   ar
    16    22    23   ar
    17    23    24   ar
    18    24    25   ar
    19    18    27    1
    20    27    28    1
    21    27    29    1
    22     6     7   ar
    23     7     8   ar
    24     8     9   ar
    25     9    10   ar
    26    10     1   ar
    27     9     4   ar
    28    25    21   ar
    29    11    14    1
    30    19    20    1
    31    25    26    1
