@<TRIPOS>MOLECULE
*****
 33 36 0 0 0
SMALL
GASTEIGER

@<TRIPOS>ATOM
      1 C          63.1712   86.4532   16.8026 C.3     1  UNL1        0.0227
      2 C          63.0431   87.9461   16.7333 C.3     1  UNL1        0.0897
      3 O          63.2643   90.9345   16.8778 O.2     1  UNL1       -0.2701
      4 C          63.8111   90.1985   15.6907 C.2     1  UNL1        0.2458
      5 N          63.7005   88.7043   15.6184 N.am    1  UNL1       -0.3009
      6 H          64.0594   88.2212   14.8392 H       1  UNL1        0.1497
      7 C          64.4685   90.9567   14.5758 C.ar    1  UNL1        0.0534
      8 C          65.7038   91.7641   14.8442 C.ar    1  UNL1        0.0045
      9 C          66.3612   92.5223   13.7293 C.ar    1  UNL1        0.0002
     10 C          65.7833   92.4731   12.3460 C.ar    1  UNL1        0.0005
     11 C          64.5479   91.6656   12.0776 C.ar    1  UNL1        0.0002
     12 C          63.8905   90.9074   13.1925 C.ar    1  UNL1        0.0045
     13 C          66.4406   93.2312   11.2311 C.ar    1  UNL1        0.0070
     14 C          67.2615   92.6373   10.1250 C.ar    1  UNL1        0.0075
     15 C          67.7208   93.7555    9.2368 C.ar    1  UNL1        0.0355
     16 S          67.1837   95.0404    9.7941 S.2     1  UNL1       -0.0859
     17 C          66.3926   94.7164   11.0266 C.ar    1  UNL1        0.0354
     18 C          64.3168   85.7662   16.1201 C.3     1  UNL1        0.0191
     19 C          64.0617   84.5820   15.2355 C.3     1  UNL1        0.0723
     20 N          63.5253   84.7831   13.8491 N.3     1  UNL1       -0.2698
     21 C          63.3379   86.1707   13.3114 C.3     1  UNL1        0.0938
     22 C          62.8016   86.3718   11.9251 C.3     1  UNL1        0.1081
     23 N          62.4527   85.1851   11.0765 N.pl3   1  UNL1       -0.3046
     24 C          62.6402   83.7974   11.6142 C.3     1  UNL1        0.1081
     25 C          63.1765   83.5964   13.0005 C.3     1  UNL1        0.0938
     26 C          61.9164   85.3862    9.6901 C.ar    1  UNL1        0.0496
     27 C          62.6143   84.7622    8.5181 C.ar    1  UNL1        0.0260
     28 C          62.0780   84.9633    7.1317 C.ar    1  UNL1        0.0597
     29 CL         62.7759   84.3394    5.9598 Cl      1  UNL1       -0.0822
     30 C          60.8437   85.7883    6.9174 C.ar    1  UNL1        0.0229
     31 C          60.1458   86.4123    8.0895 C.ar    1  UNL1        0.0597
     32 CL         58.9115   87.2373    7.8752 Cl      1  UNL1       -0.0822
     33 C          60.6821   86.2112    9.4758 C.ar    1  UNL1        0.0260
@<TRIPOS>BOND
     1     3     4    2
     2     4     5   am
     3     5     2    1
     4     2     1    1
     5     1    18    1
     6    18    19    1
     7    19    20    1
     8    20    21    1
     9    21    22    1
    10    22    23    1
    11    23    26    1
    12    26    27   ar
    13    27    28   ar
    14    28    29    1
    15    28    30   ar
    16    30    31   ar
    17    31    32    1
    18    31    33   ar
    19    23    24    1
    20    24    25    1
    21     4     7    1
    22     7     8   ar
    23     8     9   ar
    24     9    10   ar
    25    10    13    1
    26    13    14   ar
    27    14    15   ar
    28    15    16   ar
    29    16    17   ar
    30    10    11   ar
    31    11    12   ar
    32    25    20    1
    33    12     7   ar
    34    33    26   ar
    35    17    13   ar
    36     5     6    1
@<TRIPOS>MOLECULE
*****
 33 36 0 0 0
SMALL
GASTEIGER

@<TRIPOS>ATOM
      1 C          60.0656   89.4320    7.9991 C.3     1  UNL1        0.0227
      2 C          60.0401   89.7861    9.4565 C.3     1  UNL1        0.0897
      3 O          60.4630   89.2454   12.3770 O.2     1  UNL1       -0.2701
      4 C          61.5017   89.9930   11.5946 C.2     1  UNL1        0.2458
      5 N          61.2902   90.2634   10.1343 N.am    1  UNL1       -0.3009
      6 H          61.9719   90.7541    9.6208 H       1  UNL1        0.1497
      7 C          62.7517   90.4703   12.2723 C.ar    1  UNL1        0.0534
      8 C          63.6589   91.4406   11.5756 C.ar    1  UNL1        0.0045
      9 C          64.9091   91.9179   12.2533 C.ar    1  UNL1        0.0002
     10 C          65.2520   91.4250   13.6279 C.ar    1  UNL1        0.0005
     11 C          64.3447   90.4547   14.3247 C.ar    1  UNL1        0.0002
     12 C          63.0946   89.9774   13.6469 C.ar    1  UNL1        0.0045
     13 C          66.5020   91.9023   14.3057 C.ar    1  UNL1        0.0070
     14 C          67.8880   91.8551   13.7340 C.ar    1  UNL1        0.0075
     15 C          68.8282   92.4342   14.7491 C.ar    1  UNL1        0.0355
     16 S          68.0233   92.8394   15.9483 S.2     1  UNL1       -0.0859
     17 C          66.5857   92.5106   15.6742 C.ar    1  UNL1        0.0354
     18 C          59.5280   88.1093    7.5391 C.3     1  UNL1        0.0191
     19 C          60.4486   86.9334    7.3987 C.3     1  UNL1        0.0723
     20 N          61.0994   86.3411    8.6135 N.3     1  UNL1       -0.2698
     21 C          60.5826   86.6780    9.9807 C.3     1  UNL1        0.0938
     22 C          61.2334   86.0857   11.1954 C.3     1  UNL1        0.1081
     23 N          62.4010   85.1565   11.0429 N.pl3   1  UNL1       -0.3046
     24 C          62.9178   84.8196    9.6756 C.3     1  UNL1        0.1081
     25 C          62.2670   85.4119    8.4609 C.3     1  UNL1        0.0938
     26 C          63.0518   84.5642   12.2577 C.ar    1  UNL1        0.0496
     27 C          63.5998   85.4613   13.3276 C.ar    1  UNL1        0.0260
     28 C          64.2506   84.8690   14.5424 C.ar    1  UNL1        0.0597
     29 CL         64.7986   85.7661   15.6124 Cl      1  UNL1       -0.0822
     30 C          64.3534   83.3795   14.6872 C.ar    1  UNL1        0.0229
     31 C          63.8054   82.4824   13.6172 C.ar    1  UNL1        0.0597
     32 CL         63.9081   80.9929   13.7620 Cl      1  UNL1       -0.0822
     33 C          63.1546   83.0747   12.4025 C.ar    1  UNL1        0.0260
@<TRIPOS>BOND
     1     3     4    2
     2     4     5   am
     3     5     2    1
     4     2     1    1
     5     1    18    1
     6    18    19    1
     7    19    20    1
     8    20    21    1
     9    21    22    1
    10    22    23    1
    11    23    26    1
    12    26    27   ar
    13    27    28   ar
    14    28    29    1
    15    28    30   ar
    16    30    31   ar
    17    31    32    1
    18    31    33   ar
    19    23    24    1
    20    24    25    1
    21     4     7    1
    22     7     8   ar
    23     8     9   ar
    24     9    10   ar
    25    10    13    1
    26    13    14   ar
    27    14    15   ar
    28    15    16   ar
    29    16    17   ar
    30    10    11   ar
    31    11    12   ar
    32    25    20    1
    33    12     7   ar
    34    33    26   ar
    35    17    13   ar
    36     5     6    1
@<TRIPOS>MOLECULE
*****
 33 36 0 0 0
SMALL
GASTEIGER

@<TRIPOS>ATOM
      1 C          60.0557   89.3886    7.9778 C.3     1  UNL1        0.0227
      2 C          60.0208   89.7717    9.4276 C.3     1  UNL1        0.0897
      3 O          60.4464   89.2410   12.3495 O.2     1  UNL1       -0.2701
      4 C          61.4802   89.9939   11.5656 C.2     1  UNL1        0.2458
      5 N          61.2674   90.2593   10.1046 N.am    1  UNL1       -0.3009
      6 H          61.9458   90.7535    9.5901 H       1  UNL1        0.1497
      7 C          62.7267   90.4815   12.2426 C.ar    1  UNL1        0.0534
      8 C          63.0869   89.9731   13.6071 C.ar    1  UNL1        0.0045
      9 C          64.3335   90.4607   14.2842 C.ar    1  UNL1        0.0002
     10 C          65.2198   91.4566   13.5968 C.ar    1  UNL1        0.0005
     11 C          64.8595   91.9650   12.2323 C.ar    1  UNL1        0.0002
     12 C          63.6130   91.4775   11.5552 C.ar    1  UNL1        0.0045
     13 C          66.4663   91.9442   14.2738 C.ar    1  UNL1        0.0070
     14 C          67.8639   91.8200   13.7435 C.ar    1  UNL1        0.0075
     15 C          68.7955   92.4406   14.7420 C.ar    1  UNL1        0.0355
     16 S          67.9736   92.9484   15.8894 S.2     1  UNL1       -0.0859
     17 C          66.5341   92.6416   15.6001 C.ar    1  UNL1        0.0354
     18 C          59.5611   88.0397    7.5464 C.3     1  UNL1        0.0191
     19 C          60.5217   86.8952    7.4158 C.3     1  UNL1        0.0723
     20 N          61.1565   86.3052    8.6402 N.3     1  UNL1       -0.2698
     21 C          60.6289   86.6536   10.0004 C.3     1  UNL1        0.0938
     22 C          61.2636   86.0636   11.2247 C.3     1  UNL1        0.1081
     23 N          62.4260   85.1253   11.0888 N.pl3   1  UNL1       -0.3046
     24 C          62.9536   84.7769    9.7286 C.3     1  UNL1        0.1081
     25 C          62.3188   85.3668    8.5043 C.3     1  UNL1        0.0938
     26 C          63.0607   84.5353   12.3132 C.ar    1  UNL1        0.0496
     27 C          63.1667   83.0463   12.4596 C.ar    1  UNL1        0.0260
     28 C          63.8015   82.4563   13.6840 C.ar    1  UNL1        0.0597
     29 CL         63.9075   80.9673   13.8304 Cl      1  UNL1       -0.0822
     30 C          64.3302   83.3555   14.7620 C.ar    1  UNL1        0.0229
     31 C          64.2241   84.8446   14.6155 C.ar    1  UNL1        0.0597
     32 CL         64.7529   85.7437   15.6935 Cl      1  UNL1       -0.0822
     33 C          63.5894   85.4345   13.3912 C.ar    1  UNL1        0.0260
@<TRIPOS>BOND
     1     3     4    2
     2     4     5   am
     3     5     2    1
     4     2     1    1
     5     1    18    1
     6    18    19    1
     7    19    20    1
     8    20    21    1
     9    21    22    1
    10    22    23    1
    11    23    26    1
    12    26    27   ar
    13    27    28   ar
    14    28    29    1
    15    28    30   ar
    16    30    31   ar
    17    31    32    1
    18    31    33   ar
    19    23    24    1
    20    24    25    1
    21     4     7    1
    22     7     8   ar
    23     8     9   ar
    24     9    10   ar
    25    10    13    1
    26    13    14   ar
    27    14    15   ar
    28    15    16   ar
    29    16    17   ar
    30    10    11   ar
    31    11    12   ar
    32    25    20    1
    33    12     7   ar
    34    33    26   ar
    35    17    13   ar
    36     5     6    1
@<TRIPOS>MOLECULE
*****
 33 36 0 0 0
SMALL
GASTEIGER

@<TRIPOS>ATOM
      1 C          62.6309   88.2506   17.1516 C.3     1  UNL1        0.0227
      2 C          63.0380   86.8597   17.5383 C.3     1  UNL1        0.0897
      3 O          65.0998   86.2573   15.4439 O.2     1  UNL1       -0.2701
      4 C          63.8572   85.4221   15.5352 C.2     1  UNL1        0.2458
      5 N          62.8263   85.7233   16.5825 N.am    1  UNL1       -0.3009
      6 H          62.0108   85.1751   16.6424 H       1  UNL1        0.1497
      7 C          63.6455   84.2856   14.5794 C.ar    1  UNL1        0.0534
      8 C          62.6469   83.2130   14.8990 C.ar    1  UNL1        0.0045
      9 C          62.4351   82.0765   13.9431 C.ar    1  UNL1        0.0002
     10 C          63.2221   82.0127   12.6677 C.ar    1  UNL1        0.0005
     11 C          64.2208   83.0854   12.3482 C.ar    1  UNL1        0.0002
     12 C          64.4325   84.2218   13.3040 C.ar    1  UNL1        0.0045
     13 C          63.0104   80.8763   11.7119 C.ar    1  UNL1        0.0070
     14 C          63.0740   80.9592   10.2155 C.ar    1  UNL1        0.0075
     15 C          62.8008   79.5916    9.6634 C.ar    1  UNL1        0.0355
     16 S          62.5684   78.6633   10.8186 S.2     1  UNL1       -0.0859
     17 C          62.6979   79.4573   12.0846 C.ar    1  UNL1        0.0354
     18 C          63.3240   88.9472   16.0183 C.3     1  UNL1        0.0191
     19 C          63.6836   90.3986   16.1376 C.3     1  UNL1        0.0723
     20 N          64.3633   91.0990   14.9984 N.3     1  UNL1       -0.2698
     21 C          65.5509   91.9773   15.2594 C.3     1  UNL1        0.0938
     22 C          66.2304   92.6776   14.1203 C.3     1  UNL1        0.1081
     23 N          65.7223   92.4997   12.7202 N.pl3   1  UNL1       -0.3046
     24 C          64.5347   91.6214   12.4592 C.3     1  UNL1        0.1081
     25 C          63.8552   90.9211   13.5984 C.3     1  UNL1        0.0938
     26 C          66.4020   93.2002   11.5810 C.ar    1  UNL1        0.0496
     27 C          67.2621   92.4233   10.6289 C.ar    1  UNL1        0.0260
     28 C          67.9417   93.1237    9.4897 C.ar    1  UNL1        0.0597
     29 CL         68.8018   92.3468    8.5376 Cl      1  UNL1       -0.0822
     30 C          67.7611   94.6010    9.3028 C.ar    1  UNL1        0.0229
     31 C          66.9010   95.3779   10.2550 C.ar    1  UNL1        0.0597
     32 CL         66.7204   96.8552   10.0681 Cl      1  UNL1       -0.0822
     33 C          66.2214   94.6775   11.3941 C.ar    1  UNL1        0.0260
@<TRIPOS>BOND
     1     3     4    2
     2     4     5   am
     3     5     2    1
     4     2     1    1
     5     1    18    1
     6    18    19    1
     7    19    20    1
     8    20    21    1
     9    21    22    1
    10    22    23    1
    11    23    26    1
    12    26    27   ar
    13    27    28   ar
    14    28    29    1
    15    28    30   ar
    16    30    31   ar
    17    31    32    1
    18    31    33   ar
    19    23    24    1
    20    24    25    1
    21     4     7    1
    22     7     8   ar
    23     8     9   ar
    24     9    10   ar
    25    10    13    1
    26    13    14   ar
    27    14    15   ar
    28    15    16   ar
    29    16    17   ar
    30    10    11   ar
    31    11    12   ar
    32    25    20    1
    33    12     7   ar
    34    33    26   ar
    35    17    13   ar
    36     5     6    1
@<TRIPOS>MOLECULE
*****
 33 36 0 0 0
SMALL
GASTEIGER

@<TRIPOS>ATOM
      1 C          64.0636   91.3159   16.1399 C.3     1  UNL1        0.0227
      2 C          63.4287   90.1011   16.7491 C.3     1  UNL1        0.0897
      3 O          63.0853   87.4906   18.1870 O.2     1  UNL1       -0.2701
      4 C          63.1911   87.5145   16.6910 C.2     1  UNL1        0.2458
      5 N          63.3628   88.8198   15.9720 N.am    1  UNL1       -0.3009
      6 H          63.4322   88.8355   14.9901 H       1  UNL1        0.1497
      7 C          63.1251   86.2333   15.9139 C.ar    1  UNL1        0.0534
      8 C          64.0641   86.0025   14.7671 C.ar    1  UNL1        0.0045
      9 C          63.9982   84.7212   13.9899 C.ar    1  UNL1        0.0002
     10 C          62.9933   83.6707   14.3596 C.ar    1  UNL1        0.0005
     11 C          62.0543   83.9015   15.5063 C.ar    1  UNL1        0.0002
     12 C          62.1202   85.1828   16.2835 C.ar    1  UNL1        0.0045
     13 C          62.9274   82.3894   13.5824 C.ar    1  UNL1        0.0070
     14 C          63.3337   82.2049   12.1504 C.ar    1  UNL1        0.0075
     15 C          63.1010   80.7691   11.7838 C.ar    1  UNL1        0.0355
     16 S          62.5508   80.0663   12.9894 S.2     1  UNL1       -0.0859
     17 C          62.4435   81.0677   14.1010 C.ar    1  UNL1        0.0354
     18 C          64.9148   91.1814   14.9121 C.3     1  UNL1        0.0191
     19 C          64.4101   91.6818   13.5911 C.3     1  UNL1        0.0723
     20 N          63.7921   90.7264   12.6137 N.3     1  UNL1       -0.2698
     21 C          63.6400   89.2784   12.9742 C.3     1  UNL1        0.0938
     22 C          63.0220   88.3231   11.9967 C.3     1  UNL1        0.1081
     23 N          62.5561   88.8159   10.6587 N.pl3   1  UNL1       -0.3046
     24 C          62.7082   90.2639   10.2982 C.3     1  UNL1        0.1081
     25 C          63.3262   91.2192   11.2757 C.3     1  UNL1        0.0938
     26 C          61.9380   87.8605    9.6813 C.ar    1  UNL1        0.0496
     27 C          60.5353   88.0837    9.1991 C.ar    1  UNL1        0.0260
     28 C          59.9173   87.1283    8.2216 C.ar    1  UNL1        0.0597
     29 CL         58.5146   87.3515    7.7394 Cl      1  UNL1       -0.0822
     30 C          60.7020   85.9498    7.7264 C.ar    1  UNL1        0.0229
     31 C          62.1048   85.7266    8.2086 C.ar    1  UNL1        0.0597
     32 CL         62.8896   84.5481    7.7134 Cl      1  UNL1       -0.0822
     33 C          62.7228   86.6820    9.1861 C.ar    1  UNL1        0.0260
@<TRIPOS>BOND
     1     3     4    2
     2     4     5   am
     3     5     2    1
     4     2     1    1
     5     1    18    1
     6    18    19    1
     7    19    20    1
     8    20    21    1
     9    21    22    1
    10    22    23    1
    11    23    26    1
    12    26    27   ar
    13    27    28   ar
    14    28    29    1
    15    28    30   ar
    16    30    31   ar
    17    31    32    1
    18    31    33   ar
    19    23    24    1
    20    24    25    1
    21     4     7    1
    22     7     8   ar
    23     8     9   ar
    24     9    10   ar
    25    10    13    1
    26    13    14   ar
    27    14    15   ar
    28    15    16   ar
    29    16    17   ar
    30    10    11   ar
    31    11    12   ar
    32    25    20    1
    33    12     7   ar
    34    33    26   ar
    35    17    13   ar
    36     5     6    1
@<TRIPOS>MOLECULE
*****
 33 36 0 0 0
SMALL
GASTEIGER

@<TRIPOS>ATOM
      1 C          59.0512   87.9493    7.4561 C.3     1  UNL1        0.0227
      2 C          58.9726   89.4158    7.1511 C.3     1  UNL1        0.0897
      3 O          57.9718   91.5614    5.3086 O.2     1  UNL1       -0.2701
      4 C          59.3937   91.0935    5.2126 C.2     1  UNL1        0.2458
      5 N          59.8941   90.0207    6.1338 N.am    1  UNL1       -0.3009
      6 H          60.8274   89.7136    6.0708 H       1  UNL1        0.1497
      7 C          60.3152   91.6984    4.1953 C.ar    1  UNL1        0.0534
      8 C          61.7231   91.1972    4.0668 C.ar    1  UNL1        0.0045
      9 C          62.6447   91.8021    3.0495 C.ar    1  UNL1        0.0002
     10 C          62.1583   92.9081    2.1606 C.ar    1  UNL1        0.0005
     11 C          60.7503   93.4093    2.2891 C.ar    1  UNL1        0.0002
     12 C          59.8288   92.8044    3.3064 C.ar    1  UNL1        0.0045
     13 C          63.0798   93.5130    1.1433 C.ar    1  UNL1        0.0070
     14 C          64.4350   94.0950    1.4169 C.ar    1  UNL1        0.0075
     15 C          65.0006   94.5838    0.1165 C.ar    1  UNL1        0.0355
     16 S          63.9950   94.3038   -0.9608 S.2     1  UNL1       -0.0859
     17 C          62.8079   93.6421   -0.3262 C.ar    1  UNL1        0.0354
     18 C          60.2235   87.4030    8.2161 C.3     1  UNL1        0.0191
     19 C          60.3032   87.5832    9.7030 C.3     1  UNL1        0.0723
     20 N          61.3059   88.5314   10.2910 N.3     1  UNL1       -0.2698
     21 C          61.4706   89.9042    9.7095 C.3     1  UNL1        0.0938
     22 C          62.4732   90.8524   10.2975 C.3     1  UNL1        0.1081
     23 N          63.3110   90.4277   11.4670 N.pl3   1  UNL1       -0.3046
     24 C          63.1463   89.0549   12.0485 C.3     1  UNL1        0.1081
     25 C          62.1437   88.1067   11.4605 C.3     1  UNL1        0.0938
     26 C          64.3137   91.3759   12.0550 C.ar    1  UNL1        0.0496
     27 C          64.7006   91.2577   13.4994 C.ar    1  UNL1        0.0260
     28 C          65.7032   92.2059   14.0873 C.ar    1  UNL1        0.0597
     29 CL         66.0901   92.0876   15.5317 Cl      1  UNL1       -0.0822
     30 C          66.3189   93.2724   13.2309 C.ar    1  UNL1        0.0229
     31 C          65.9319   93.3907   11.7864 C.ar    1  UNL1        0.0597
     32 CL         66.5476   94.4572   10.9300 Cl      1  UNL1       -0.0822
     33 C          64.9293   92.4424   11.1985 C.ar    1  UNL1        0.0260
@<TRIPOS>BOND
     1     3     4    2
     2     4     5   am
     3     5     2    1
     4     2     1    1
     5     1    18    1
     6    18    19    1
     7    19    20    1
     8    20    21    1
     9    21    22    1
    10    22    23    1
    11    23    26    1
    12    26    27   ar
    13    27    28   ar
    14    28    29    1
    15    28    30   ar
    16    30    31   ar
    17    31    32    1
    18    31    33   ar
    19    23    24    1
    20    24    25    1
    21     4     7    1
    22     7     8   ar
    23     8     9   ar
    24     9    10   ar
    25    10    13    1
    26    13    14   ar
    27    14    15   ar
    28    15    16   ar
    29    16    17   ar
    30    10    11   ar
    31    11    12   ar
    32    25    20    1
    33    12     7   ar
    34    33    26   ar
    35    17    13   ar
    36     5     6    1
@<TRIPOS>MOLECULE
*****
 33 36 0 0 0
SMALL
GASTEIGER

@<TRIPOS>ATOM
      1 C          59.0225   89.7143    6.4388 C.3     1  UNL1        0.0227
      2 C          59.5518   88.9834    7.6370 C.3     1  UNL1        0.0897
      3 O          61.2180   87.3754    9.5445 O.2     1  UNL1       -0.2701
      4 C          61.3163   88.8722    9.5408 C.2     1  UNL1        0.2458
      5 N          60.4832   89.6762    8.5870 N.am    1  UNL1       -0.3009
      6 H          60.5477   90.6585    8.5846 H       1  UNL1        0.1497
      7 C          62.2476   89.5649   10.4908 C.ar    1  UNL1        0.0534
      8 C          62.5996   88.9213   11.7991 C.ar    1  UNL1        0.0045
      9 C          63.5310   89.6141   12.7492 C.ar    1  UNL1        0.0002
     10 C          64.1103   90.9505   12.3910 C.ar    1  UNL1        0.0005
     11 C          63.7582   91.5942   11.0826 C.ar    1  UNL1        0.0002
     12 C          62.8269   90.9014   10.1325 C.ar    1  UNL1        0.0045
     13 C          65.0417   91.6433   13.3410 C.ar    1  UNL1        0.0070
     14 C          65.2469   91.2954   14.7856 C.ar    1  UNL1        0.0075
     15 C          66.2634   92.2427   15.3507 C.ar    1  UNL1        0.0355
     16 S          66.6864   93.1761   14.2553 S.2     1  UNL1       -0.0859
     17 C          65.9313   92.8056   13.0133 C.ar    1  UNL1        0.0354
     18 C          59.9628   90.4621    5.5406 C.3     1  UNL1        0.0191
     19 C          59.4733   91.6473    4.7624 C.3     1  UNL1        0.0723
     20 N          60.2912   92.1892    3.6277 N.3     1  UNL1       -0.2698
     21 C          59.6482   93.0580    2.5876 C.3     1  UNL1        0.0938
     22 C          60.4660   93.5999    1.4530 C.3     1  UNL1        0.1081
     23 N          61.9269   93.2730    1.3585 N.pl3   1  UNL1       -0.3046
     24 C          62.5700   92.4043    2.3985 C.3     1  UNL1        0.1081
     25 C          61.7521   91.8624    3.5331 C.3     1  UNL1        0.0938
     26 C          62.7448   93.8150    0.2238 C.ar    1  UNL1        0.0496
     27 C          62.4663   93.3696   -1.1812 C.ar    1  UNL1        0.0260
     28 C          63.2842   93.9115   -2.3159 C.ar    1  UNL1        0.0597
     29 CL         63.0056   93.4661   -3.7209 Cl      1  UNL1       -0.0822
     30 C          64.3805   94.8989   -2.0455 C.ar    1  UNL1        0.0229
     31 C          64.6590   95.3443   -0.6405 C.ar    1  UNL1        0.0597
     32 CL         65.7554   96.3316   -0.3701 Cl      1  UNL1       -0.0822
     33 C          63.8412   94.8023    0.4941 C.ar    1  UNL1        0.0260
@<TRIPOS>BOND
     1     3     4    2
     2     4     5   am
     3     5     2    1
     4     2     1    1
     5     1    18    1
     6    18    19    1
     7    19    20    1
     8    20    21    1
     9    21    22    1
    10    22    23    1
    11    23    26    1
    12    26    27   ar
    13    27    28   ar
    14    28    29    1
    15    28    30   ar
    16    30    31   ar
    17    31    32    1
    18    31    33   ar
    19    23    24    1
    20    24    25    1
    21     4     7    1
    22     7     8   ar
    23     8     9   ar
    24     9    10   ar
    25    10    13    1
    26    13    14   ar
    27    14    15   ar
    28    15    16   ar
    29    16    17   ar
    30    10    11   ar
    31    11    12   ar
    32    25    20    1
    33    12     7   ar
    34    33    26   ar
    35    17    13   ar
    36     5     6    1
@<TRIPOS>MOLECULE
*****
 33 36 0 0 0
SMALL
GASTEIGER

@<TRIPOS>ATOM
      1 C          59.1137   87.9240    7.4615 C.3     1  UNL1        0.0227
      2 C          59.0573   89.4044    7.2267 C.3     1  UNL1        0.0897
      3 O          57.9691   91.3817    5.2503 O.2     1  UNL1       -0.2701
      4 C          59.4267   91.0282    5.2325 C.2     1  UNL1        0.2458
      5 N          59.9708   90.0395    6.2208 N.am    1  UNL1       -0.3009
      6 H          60.9275   89.8076    6.2092 H       1  UNL1        0.1497
      7 C          60.3403   91.6634    4.2266 C.ar    1  UNL1        0.0534
      8 C          61.7436   91.1592    4.0645 C.ar    1  UNL1        0.0045
      9 C          62.6572   91.7944    3.0585 C.ar    1  UNL1        0.0002
     10 C          62.1674   92.9337    2.2147 C.ar    1  UNL1        0.0005
     11 C          60.7640   93.4379    2.3769 C.ar    1  UNL1        0.0002
     12 C          59.8504   92.8027    3.3828 C.ar    1  UNL1        0.0045
     13 C          63.0810   93.5689    1.2088 C.ar    1  UNL1        0.0070
     14 C          62.8824   93.5821   -0.2780 C.ar    1  UNL1        0.0075
     15 C          64.0322   94.3238   -0.8927 C.ar    1  UNL1        0.0355
     16 S          64.9414   94.7689    0.2142 S.2     1  UNL1       -0.0859
     17 C          64.3536   94.3024    1.5129 C.ar    1  UNL1        0.0354
     18 C          60.2025   87.3405    8.3126 C.3     1  UNL1        0.0191
     19 C          60.2325   87.6180    9.7863 C.3     1  UNL1        0.0723
     20 N          61.2542   88.5597   10.3516 N.3     1  UNL1       -0.2698
     21 C          61.3873   89.9454    9.7928 C.3     1  UNL1        0.0938
     22 C          62.4089   90.8870   10.3581 C.3     1  UNL1        0.1081
     23 N          63.2974   90.4430   11.4821 N.pl3   1  UNL1       -0.3046
     24 C          63.1643   89.0574   12.0409 C.3     1  UNL1        0.1081
     25 C          62.1427   88.1157   11.4756 C.3     1  UNL1        0.0938
     26 C          64.3191   91.3847   12.0474 C.ar    1  UNL1        0.0496
     27 C          64.9297   92.4408   11.1746 C.ar    1  UNL1        0.0260
     28 C          65.9514   93.3825   11.7399 C.ar    1  UNL1        0.0597
     29 CL         66.5620   94.4386   10.8671 Cl      1  UNL1       -0.0822
     30 C          66.3623   93.2681   13.1780 C.ar    1  UNL1        0.0229
     31 C          65.7516   92.2120   14.0508 C.ar    1  UNL1        0.0597
     32 CL         66.1625   92.0976   15.4888 Cl      1  UNL1       -0.0822
     33 C          64.7300   91.2703   13.4855 C.ar    1  UNL1        0.0260
@<TRIPOS>BOND
     1     3     4    2
     2     4     5   am
     3     5     2    1
     4     2     1    1
     5     1    18    1
     6    18    19    1
     7    19    20    1
     8    20    21    1
     9    21    22    1
    10    22    23    1
    11    23    26    1
    12    26    27   ar
    13    27    28   ar
    14    28    29    1
    15    28    30   ar
    16    30    31   ar
    17    31    32    1
    18    31    33   ar
    19    23    24    1
    20    24    25    1
    21     4     7    1
    22     7     8   ar
    23     8     9   ar
    24     9    10   ar
    25    10    13    1
    26    13    14   ar
    27    14    15   ar
    28    15    16   ar
    29    16    17   ar
    30    10    11   ar
    31    11    12   ar
    32    25    20    1
    33    12     7   ar
    34    33    26   ar
    35    17    13   ar
    36     5     6    1
@<TRIPOS>MOLECULE
*****
 33 36 0 0 0
SMALL
GASTEIGER

@<TRIPOS>ATOM
      1 C          58.7190   90.9480    5.0353 C.3     1  UNL1        0.0227
      2 C          59.1622   92.3536    4.7566 C.3     1  UNL1        0.0897
      3 O          61.9958   91.6106    4.1095 O.2     1  UNL1       -0.2701
      4 C          61.1600   92.3341    3.0957 C.2     1  UNL1        0.2458
      5 N          59.7431   92.7056    3.4193 N.am    1  UNL1       -0.3009
      6 H          59.1945   93.1805    2.7539 H       1  UNL1        0.1497
      7 C          61.7408   92.6861    1.7583 C.ar    1  UNL1        0.0534
      8 C          60.9113   92.5367    0.5175 C.ar    1  UNL1        0.0045
      9 C          61.4922   92.8887   -0.8199 C.ar    1  UNL1        0.0002
     10 C          62.9026   93.3901   -0.9166 C.ar    1  UNL1        0.0005
     11 C          63.7321   93.5394    0.3243 C.ar    1  UNL1        0.0002
     12 C          63.1513   93.1875    1.6616 C.ar    1  UNL1        0.0045
     13 C          63.4835   93.7420   -2.2540 C.ar    1  UNL1        0.0070
     14 C          63.4838   92.8677   -3.4728 C.ar    1  UNL1        0.0075
     15 C          64.1665   93.6154   -4.5795 C.ar    1  UNL1        0.0355
     16 S          64.5882   94.9519   -4.0446 S.2     1  UNL1       -0.0859
     17 C          64.1660   95.0301   -2.6073 C.ar    1  UNL1        0.0354
     18 C          59.5590   90.0538    5.8984 C.3     1  UNL1        0.0191
     19 C          58.9496   89.3691    7.0857 C.3     1  UNL1        0.0723
     20 N          59.7794   88.4437    7.9254 N.3     1  UNL1       -0.2698
     21 C          60.6760   88.9996    8.9918 C.3     1  UNL1        0.0938
     22 C          61.5057   88.0742    9.8315 C.3     1  UNL1        0.1081
     23 N          61.4388   86.5929    9.6049 N.pl3   1  UNL1       -0.3046
     24 C          60.5422   86.0370    8.5386 C.3     1  UNL1        0.1081
     25 C          59.7125   86.9624    7.6989 C.3     1  UNL1        0.0938
     26 C          62.2686   85.6675   10.4447 C.ar    1  UNL1        0.0496
     27 C          62.9566   84.4945    9.8118 C.ar    1  UNL1        0.0260
     28 C          63.7864   83.5690   10.6516 C.ar    1  UNL1        0.0597
     29 CL         64.4745   82.3960   10.0188 Cl      1  UNL1       -0.0822
     30 C          63.9280   83.8167   12.1242 C.ar    1  UNL1        0.0229
     31 C          63.2399   84.9898   12.7571 C.ar    1  UNL1        0.0597
     32 CL         63.3815   85.2375   14.2297 Cl      1  UNL1       -0.0822
     33 C          62.4102   85.9151   11.9173 C.ar    1  UNL1        0.0260
@<TRIPOS>BOND
     1     3     4    2
     2     4     5   am
     3     5     2    1
     4     2     1    1
     5     1    18    1
     6    18    19    1
     7    19    20    1
     8    20    21    1
     9    21    22    1
    10    22    23    1
    11    23    26    1
    12    26    27   ar
    13    27    28   ar
    14    28    29    1
    15    28    30   ar
    16    30    31   ar
    17    31    32    1
    18    31    33   ar
    19    23    24    1
    20    24    25    1
    21     4     7    1
    22     7     8   ar
    23     8     9   ar
    24     9    10   ar
    25    10    13    1
    26    13    14   ar
    27    14    15   ar
    28    15    16   ar
    29    16    17   ar
    30    10    11   ar
    31    11    12   ar
    32    25    20    1
    33    12     7   ar
    34    33    26   ar
    35    17    13   ar
    36     5     6    1
