@<TRIPOS>MOLECULE
*****
 35 39 0 0 0
SMALL
GASTEIGER

@<TRIPOS>ATOM
      1 O          64.2542   87.8675   13.2660 O.2     1  UNL1       -0.2522
      2 C          64.1531   88.1216   14.7408 C.2     1  UNL1        0.3082
      3 N          64.4973   89.4726   15.2944 N.am    1  UNL1       -0.2681
      4 N          63.7078   87.0249   15.6620 N.am    1  UNL1       -0.2681
      5 H          64.4309   89.6395   16.2624 H       1  UNL1        0.1564
      6 H          63.6414   87.1917   16.6300 H       1  UNL1        0.1564
      7 C          64.9426   90.5694   14.3732 C.ar    1  UNL1        0.0516
      8 C          64.1531   90.8758   13.1351 C.ar    1  UNL1        0.0147
      9 C          64.5984   91.9725   12.2139 C.ar    1  UNL1        0.0010
     10 C          65.8333   92.7630   12.5307 C.ar    1  UNL1       -0.0014
     11 C          66.6228   92.4567   13.7688 C.ar    1  UNL1        0.0010
     12 C          66.1774   91.3598   14.6900 C.ar    1  UNL1        0.0147
     13 C          66.2786   93.8598   11.6094 C.2     1  UNL1        0.0158
     14 C          65.8699   95.2777   11.8788 C.2     1  UNL1        0.0487
     15 C          66.3152   96.3745   10.9576 C.2     1  UNL1        0.2355
     16 N          67.1693   96.0534    9.7669 N.2     1  UNL1       -0.0325
     17 C          67.5780   94.6356    9.4976 C.2     1  UNL1        0.3799
     18 N          68.4090   94.0197    8.4112 N.2     1  UNL1       -0.0106
     19 C          68.4772   92.5422    8.6611 C.2     1  UNL1        0.3351
     20 N          67.6884   92.2450    9.9019 N.2     1  UNL1       -0.2103
     21 C          67.1327   93.5388   10.4189 C.3     1  UNL1        0.2404
     22 C          63.3635   85.6739   15.1084 C.ar    1  UNL1        0.0517
     23 C          62.6557   84.6692   15.9684 C.ar    1  UNL1        0.0147
     24 C          62.3114   83.3182   15.4149 C.ar    1  UNL1        0.0014
     25 C          62.6750   82.9719   14.0014 C.ar    1  UNL1        0.0046
     26 C          63.3829   83.9767   13.1414 C.ar    1  UNL1        0.0548
     27 C          63.7272   85.3277   13.6950 C.ar    1  UNL1        0.0192
     28 C          63.7465   83.6305   11.7280 C.2     1  UNL1        0.2491
     29 O          64.7143   82.5178   11.4536 O.2     1  UNL1       -0.2699
     30 N          63.1423   84.3969   10.5889 N.am    1  UNL1       -0.2761
     31 C          62.1745   85.5096   10.8633 C.3     1  UNL1        0.0937
     32 C          61.5703   86.2760    9.7242 C.3     1  UNL1        0.0216
     33 C          61.9339   85.9297    8.3107 C.3     1  UNL1        0.0035
     34 C          62.9017   84.8171    8.0363 C.3     1  UNL1        0.0216
     35 C          63.5059   84.0506    9.1754 C.3     1  UNL1        0.0937
@<TRIPOS>BOND
     1     1     2    2
     2     2     3   am
     3     3     7    1
     4     7     8   ar
     5     8     9   ar
     6     9    10   ar
     7    10    13    1
     8    13    14    2
     9    14    15    1
    10    15    16    2
    11    16    17    1
    12    17    18    2
    13    18    19    1
    14    19    20    2
    15    20    21    1
    16    10    11   ar
    17    11    12   ar
    18     2     4   am
    19     4    22    1
    20    22    23   ar
    21    23    24   ar
    22    24    25   ar
    23    25    26   ar
    24    26    28    1
    25    28    29    2
    26    28    30   am
    27    30    31    1
    28    31    32    1
    29    32    33    1
    30    33    34    1
    31    34    35    1
    32    26    27   ar
    33    12     7   ar
    34    27    22   ar
    35    21    13    1
    36    35    30    1
    37    21    17    1
    38     3     5    1
    39     4     6    1
@<TRIPOS>MOLECULE
*****
 35 39 0 0 0
SMALL
GASTEIGER

@<TRIPOS>ATOM
      1 O          64.4829   88.6606   14.0305 O.2     1  UNL1       -0.2522
      2 C          64.1520   89.5178   15.2161 C.2     1  UNL1        0.3082
      3 N          64.4211   90.9929   15.1736 N.am    1  UNL1       -0.2681
      4 N          63.5522   88.9000   16.4442 N.am    1  UNL1       -0.2681
      5 H          64.2039   91.5555   15.9517 H       1  UNL1        0.1564
      6 H          63.3350   89.4626   17.2224 H       1  UNL1        0.1564
      7 C          65.0209   91.6107   13.9455 C.ar    1  UNL1        0.0516
      8 C          64.2090   91.7227   12.6891 C.ar    1  UNL1        0.0147
      9 C          64.8088   92.3406   11.4610 C.ar    1  UNL1        0.0010
     10 C          66.2207   92.8465   11.4891 C.ar    1  UNL1       -0.0014
     11 C          67.0327   92.7345   12.7454 C.ar    1  UNL1        0.0010
     12 C          66.4327   92.1166   13.9735 C.ar    1  UNL1        0.0147
     13 C          66.8206   93.4644   10.2609 C.2     1  UNL1        0.0158
     14 C          67.9490   92.7774    9.5505 C.2     1  UNL1        0.0487
     15 C          68.5488   93.3952    8.3224 C.2     1  UNL1        0.2355
     16 N          68.0203   94.7001    7.8046 N.2     1  UNL1       -0.0325
     17 C          66.8920   95.3871    8.5151 C.2     1  UNL1        0.3799
     18 N          66.1676   96.6717    8.2413 N.2     1  UNL1       -0.0106
     19 C          65.1200   96.8478    9.3004 C.2     1  UNL1        0.3351
     20 N          65.1969   95.6720   10.2286 N.2     1  UNL1       -0.2103
     21 C          66.2921   94.7692    9.7432 C.3     1  UNL1        0.2404
     22 C          63.2831   87.4248   16.4868 C.ar    1  UNL1        0.0517
     23 C          62.3802   86.8574   17.5417 C.ar    1  UNL1        0.0147
     24 C          62.1112   85.3823   17.5843 C.ar    1  UNL1        0.0014
     25 C          62.7449   84.4748   16.5720 C.ar    1  UNL1        0.0046
     26 C          63.6479   85.0423   15.5171 C.ar    1  UNL1        0.0548
     27 C          63.9169   86.5174   15.4745 C.ar    1  UNL1        0.0192
     28 C          64.2816   84.1348   14.5049 C.2     1  UNL1        0.2491
     29 O          65.6466   84.4478   13.9675 O.2     1  UNL1       -0.2699
     30 N          63.5504   82.9142   14.0299 N.am    1  UNL1       -0.2761
     31 C          62.1854   82.6012   14.5673 C.3     1  UNL1        0.0937
     32 C          61.4542   81.3806   14.0924 C.3     1  UNL1        0.0216
     33 C          62.0880   80.4731   13.0801 C.3     1  UNL1        0.0035
     34 C          63.4530   80.7861   12.5428 C.3     1  UNL1        0.0216
     35 C          64.1842   82.0066   13.0177 C.3     1  UNL1        0.0937
@<TRIPOS>BOND
     1     1     2    2
     2     2     3   am
     3     3     7    1
     4     7     8   ar
     5     8     9   ar
     6     9    10   ar
     7    10    13    1
     8    13    14    2
     9    14    15    1
    10    15    16    2
    11    16    17    1
    12    17    18    2
    13    18    19    1
    14    19    20    2
    15    20    21    1
    16    10    11   ar
    17    11    12   ar
    18     2     4   am
    19     4    22    1
    20    22    23   ar
    21    23    24   ar
    22    24    25   ar
    23    25    26   ar
    24    26    28    1
    25    28    29    2
    26    28    30   am
    27    30    31    1
    28    31    32    1
    29    32    33    1
    30    33    34    1
    31    34    35    1
    32    26    27   ar
    33    12     7   ar
    34    27    22   ar
    35    21    13    1
    36    35    30    1
    37    21    17    1
    38     3     5    1
    39     4     6    1
@<TRIPOS>MOLECULE
*****
 35 39 0 0 0
SMALL
GASTEIGER

@<TRIPOS>ATOM
      1 O          64.3108   88.9932   14.2037 O.2     1  UNL1       -0.2522
      2 C          64.0887   89.7310   15.4906 C.2     1  UNL1        0.3082
      3 N          64.3825   91.1997   15.5734 N.am    1  UNL1       -0.2681
      4 N          63.5727   89.0004   16.6946 N.am    1  UNL1       -0.2681
      5 H          64.2368   91.6840   16.4180 H       1  UNL1        0.1564
      6 H          63.4269   89.4847   17.5393 H       1  UNL1        0.1564
      7 C          64.8985   91.9304   14.3694 C.ar    1  UNL1        0.0516
      8 C          65.9864   92.9520   14.5211 C.ar    1  UNL1        0.0147
      9 C          66.5023   93.6826   13.3171 C.ar    1  UNL1        0.0010
     10 C          65.9304   93.3918   11.9611 C.ar    1  UNL1       -0.0014
     11 C          64.8426   92.3703   11.8093 C.ar    1  UNL1        0.0010
     12 C          64.3266   91.6396   13.0135 C.ar    1  UNL1        0.0147
     13 C          66.4464   94.1225   10.7571 C.2     1  UNL1        0.0158
     14 C          66.0458   95.5478   10.5160 C.2     1  UNL1        0.0487
     15 C          66.5618   96.2785    9.3120 C.2     1  UNL1        0.2355
     16 N          67.4784   95.5840    8.3489 N.2     1  UNL1       -0.0325
     17 C          67.8790   94.1587    8.5899 C.2     1  UNL1        0.3799
     18 N          68.7617   93.2206    7.8214 N.2     1  UNL1       -0.0106
     19 C          68.7913   91.9100    8.5505 C.2     1  UNL1        0.3351
     20 N          67.9268   92.0382    9.7696 N.2     1  UNL1       -0.2103
     21 C          67.3630   93.4280    9.7940 C.3     1  UNL1        0.2404
     22 C          63.2788   87.5317   16.6118 C.ar    1  UNL1        0.0517
     23 C          62.3117   86.9052   17.5721 C.ar    1  UNL1        0.0147
     24 C          62.0178   85.4366   17.4894 C.ar    1  UNL1        0.0014
     25 C          62.6910   84.5946   16.4463 C.ar    1  UNL1        0.0046
     26 C          63.6581   85.2212   15.4860 C.ar    1  UNL1        0.0548
     27 C          63.9520   86.6898   15.5688 C.ar    1  UNL1        0.0192
     28 C          64.3312   84.3792   14.4431 C.2     1  UNL1        0.2491
     29 O          65.6781   84.7748   13.9143 O.2     1  UNL1       -0.2699
     30 N          63.6576   83.1416   13.9287 N.am    1  UNL1       -0.2761
     31 C          62.3108   82.7460   14.4574 C.3     1  UNL1        0.0937
     32 C          61.6371   81.5084   13.9431 C.3     1  UNL1        0.0216
     33 C          62.3103   80.6664   12.9001 C.3     1  UNL1        0.0035
     34 C          63.6571   81.0620   12.3714 C.3     1  UNL1        0.0216
     35 C          64.3307   82.2996   12.8857 C.3     1  UNL1        0.0937
@<TRIPOS>BOND
     1     1     2    2
     2     2     3   am
     3     3     7    1
     4     7     8   ar
     5     8     9   ar
     6     9    10   ar
     7    10    13    1
     8    13    14    2
     9    14    15    1
    10    15    16    2
    11    16    17    1
    12    17    18    2
    13    18    19    1
    14    19    20    2
    15    20    21    1
    16    10    11   ar
    17    11    12   ar
    18     2     4   am
    19     4    22    1
    20    22    23   ar
    21    23    24   ar
    22    24    25   ar
    23    25    26   ar
    24    26    28    1
    25    28    29    2
    26    28    30   am
    27    30    31    1
    28    31    32    1
    29    32    33    1
    30    33    34    1
    31    34    35    1
    32    26    27   ar
    33    12     7   ar
    34    27    22   ar
    35    21    13    1
    36    35    30    1
    37    21    17    1
    38     3     5    1
    39     4     6    1
@<TRIPOS>MOLECULE
*****
 35 39 0 0 0
SMALL
GASTEIGER

@<TRIPOS>ATOM
      1 O          61.0195   90.3288    4.8562 O.2     1  UNL1       -0.2522
      2 C          59.7643   91.0852    5.1761 C.2     1  UNL1        0.3082
      3 N          59.3404   92.2349    4.3109 N.am    1  UNL1       -0.2681
      4 N          58.9330   90.6918    6.3610 N.am    1  UNL1       -0.2681
      5 H          58.5165   92.7313    4.5208 H       1  UNL1        0.1564
      6 H          58.1092   91.1882    6.5709 H       1  UNL1        0.1564
      7 C          60.1716   92.6282    3.1260 C.ar    1  UNL1        0.0516
      8 C          59.5167   93.2224    1.9142 C.ar    1  UNL1        0.0147
      9 C          60.3479   93.6157    0.7293 C.ar    1  UNL1        0.0010
     10 C          61.8343   93.4150    0.7559 C.ar    1  UNL1       -0.0014
     11 C          62.4893   92.8209    1.9676 C.ar    1  UNL1        0.0010
     12 C          61.6579   92.4275    3.1526 C.ar    1  UNL1        0.0147
     13 C          62.6656   93.8083   -0.4291 C.2     1  UNL1        0.0158
     14 C          62.3810   93.2124   -1.7759 C.2     1  UNL1        0.0487
     15 C          63.2122   93.6057   -2.9608 C.2     1  UNL1        0.2355
     16 N          64.3281   94.5951   -2.7991 N.2     1  UNL1       -0.0325
     17 C          64.6127   95.1910   -1.4523 C.2     1  UNL1        0.3799
     18 N          65.6385   96.1830   -0.9902 N.2     1  UNL1       -0.0106
     19 C          65.4413   96.4027    0.4805 C.2     1  UNL1        0.3351
     20 N          64.2935   95.5465    0.9273 N.2     1  UNL1       -0.2103
     21 C          63.7814   94.7976   -0.2673 C.3     1  UNL1        0.2404
     22 C          59.3570   89.5421    7.2262 C.ar    1  UNL1        0.0517
     23 C          59.2987   88.1411    6.6933 C.ar    1  UNL1        0.0147
     24 C          59.7225   86.9914    7.5584 C.ar    1  UNL1        0.0014
     25 C          60.2047   87.2426    8.9564 C.ar    1  UNL1        0.0046
     26 C          60.2630   88.6436    9.4893 C.ar    1  UNL1        0.0548
     27 C          59.8391   89.7934    8.6241 C.ar    1  UNL1        0.0192
     28 C          60.7452   88.8948   10.8872 C.2     1  UNL1        0.2491
     29 O          60.0635   88.2304   12.0465 O.2     1  UNL1       -0.2699
     30 N          61.9091   89.8105   11.1261 N.am    1  UNL1       -0.2761
     31 C          62.5908   90.4748    9.9668 C.3     1  UNL1        0.0937
     32 C          63.7547   91.3904   10.2055 C.3     1  UNL1        0.0216
     33 C          64.2369   91.6417   11.6035 C.3     1  UNL1        0.0035
     34 C          63.5552   90.9773   12.7628 C.3     1  UNL1        0.0216
     35 C          62.3913   90.0617   12.5240 C.3     1  UNL1        0.0937
@<TRIPOS>BOND
     1     1     2    2
     2     2     3   am
     3     3     7    1
     4     7     8   ar
     5     8     9   ar
     6     9    10   ar
     7    10    13    1
     8    13    14    2
     9    14    15    1
    10    15    16    2
    11    16    17    1
    12    17    18    2
    13    18    19    1
    14    19    20    2
    15    20    21    1
    16    10    11   ar
    17    11    12   ar
    18     2     4   am
    19     4    22    1
    20    22    23   ar
    21    23    24   ar
    22    24    25   ar
    23    25    26   ar
    24    26    28    1
    25    28    29    2
    26    28    30   am
    27    30    31    1
    28    31    32    1
    29    32    33    1
    30    33    34    1
    31    34    35    1
    32    26    27   ar
    33    12     7   ar
    34    27    22   ar
    35    21    13    1
    36    35    30    1
    37    21    17    1
    38     3     5    1
    39     4     6    1
