@<TRIPOS>MOLECULE
*****
 27 29 0 0 0
SMALL
GASTEIGER

@<TRIPOS>ATOM
      1 C          63.5130   83.7939   11.7717 C.ar    1  UNL1        0.0288
      2 C          62.7324   85.0087   12.1776 C.ar    1  UNL1        0.0147
      3 C          62.2597   85.9791   11.1360 C.ar    1  UNL1        0.0482
      4 C          62.5677   85.7346    9.6884 C.ar    1  UNL1        0.0177
      5 C          63.3483   84.5197    9.2825 C.ar    1  UNL1        0.0376
      6 C          63.8209   83.5493   10.3242 C.ar    1  UNL1        0.1310
      7 O          64.6015   82.3344    9.9183 O.3     1  UNL1       -0.5058
      8 H          64.7939   82.1817    9.0141 H       1  UNL1        0.2922
      9 N          61.4792   87.1940   11.5418 N.pl3   1  UNL1       -0.3125
     10 H          60.6280   87.0930   12.0262 H       1  UNL1        0.1522
     11 C          61.9955   88.5627   11.2098 C.ar    1  UNL1        0.0513
     12 C          61.5378   89.2540    9.9598 C.ar    1  UNL1        0.0353
     13 C          62.0541   90.6226    9.6278 C.ar    1  UNL1        0.1001
     14 N          63.0281   91.2999   10.5458 N.ar    1  UNL1       -0.2437
     15 C          63.4857   90.6085   11.7958 C.ar    1  UNL1        0.0833
     16 C          64.4597   91.2858   12.7138 C.ar    1  UNL1        0.0305
     17 C          64.9173   90.5945   13.9638 C.ar    1  UNL1        0.0592
     18 CL         65.8912   91.2718   14.8818 Cl      1  UNL1       -0.0822
     19 C          64.4010   89.2258   14.2958 C.ar    1  UNL1        0.0115
     20 C          63.4270   88.5485   13.3778 C.ar    1  UNL1        0.0036
     21 C          62.9694   89.2399   12.1278 C.ar    1  UNL1        0.0312
     22 C          63.9856   82.8235   12.8134 C.3     1  UNL1        0.1022
     23 N          63.4178   82.8769   14.2007 N.3     1  UNL1       -0.2689
     24 C          64.1483   85.0899   15.3491 C.3     1  UNL1        0.0188
     25 C          64.1629   83.5911   15.2891 C.3     1  UNL1        0.0724
     26 C          62.1048   82.2159   14.4997 C.3     1  UNL1        0.0724
     27 C          61.6160   81.0931   13.6336 C.3     1  UNL1        0.0188
@<TRIPOS>BOND
     1    24    25    1
     2    25    23    1
     3    23    26    1
     4    26    27    1
     5    23    22    1
     6    22     1    1
     7     1     2   ar
     8     2     3   ar
     9     3     9    1
    10     9    11    1
    11    11    12   ar
    12    12    13   ar
    13    13    14   ar
    14    14    15   ar
    15    15    16   ar
    16    16    17   ar
    17    17    18    1
    18    17    19   ar
    19    19    20   ar
    20    20    21   ar
    21     3     4   ar
    22     4     5   ar
    23     5     6   ar
    24     6     7    1
    25     6     1   ar
    26    21    11   ar
    27    21    15   ar
    28     9    10    1
    29     7     8    1
@<TRIPOS>MOLECULE
*****
 27 29 0 0 0
SMALL
GASTEIGER

@<TRIPOS>ATOM
      1 C          64.1394   90.0706   13.1124 C.ar    1  UNL1        0.0288
      2 C          63.3429   88.8256   12.8564 C.ar    1  UNL1        0.0147
      3 C          62.4402   88.7453   11.6612 C.ar    1  UNL1        0.0482
      4 C          62.3340   89.9100   10.7218 C.ar    1  UNL1        0.0177
      5 C          63.1304   91.1550   10.9778 C.ar    1  UNL1        0.0376
      6 C          64.0332   91.2353   12.1731 C.ar    1  UNL1        0.1310
      7 O          64.8297   92.4803   12.4291 O.3     1  UNL1       -0.5058
      8 H          64.7633   93.2079   11.8424 H       1  UNL1        0.2922
      9 N          61.6437   87.5002   11.4052 N.pl3   1  UNL1       -0.3125
     10 H          60.7307   87.4174   11.7641 H       1  UNL1        0.1522
     11 C          62.2383   86.3814   10.6022 C.ar    1  UNL1        0.0513
     12 C          62.3863   86.5210    9.1161 C.ar    1  UNL1        0.0353
     13 C          62.9808   85.4021    8.3132 C.ar    1  UNL1        0.1001
     14 N          63.4274   84.1437    8.9965 N.ar    1  UNL1       -0.2437
     15 C          63.2795   84.0041   10.4826 C.ar    1  UNL1        0.0833
     16 C          63.7261   82.7456   11.1658 C.ar    1  UNL1        0.0305
     17 C          63.5781   82.6060   12.6520 C.ar    1  UNL1        0.0592
     18 CL         64.0247   81.3475   13.3352 Cl      1  UNL1       -0.0822
     19 C          62.9835   83.7249   13.4549 C.ar    1  UNL1        0.0115
     20 C          62.5369   84.9833   12.7717 C.ar    1  UNL1        0.0036
     21 C          62.6849   85.1229   11.2855 C.ar    1  UNL1        0.0312
     22 C          65.0421   90.1510   14.3077 C.3     1  UNL1        0.1022
     23 N          64.7085   91.0782   15.4385 N.3     1  UNL1       -0.2689
     24 C          67.0519   92.1999   15.4614 C.3     1  UNL1        0.0188
     25 C          65.5742   92.2729   15.7091 C.3     1  UNL1        0.0724
     26 C          63.5092   90.8108   16.2988 C.3     1  UNL1        0.0724
     27 C          63.1386   89.4008   16.6517 C.3     1  UNL1        0.0188
@<TRIPOS>BOND
     1    24    25    1
     2    25    23    1
     3    23    26    1
     4    26    27    1
     5    23    22    1
     6    22     1    1
     7     1     2   ar
     8     2     3   ar
     9     3     9    1
    10     9    11    1
    11    11    12   ar
    12    12    13   ar
    13    13    14   ar
    14    14    15   ar
    15    15    16   ar
    16    16    17   ar
    17    17    18    1
    18    17    19   ar
    19    19    20   ar
    20    20    21   ar
    21     3     4   ar
    22     4     5   ar
    23     5     6   ar
    24     6     7    1
    25     6     1   ar
    26    21    11   ar
    27    21    15   ar
    28     9    10    1
    29     7     8    1
@<TRIPOS>MOLECULE
*****
 27 29 0 0 0
SMALL
GASTEIGER

@<TRIPOS>ATOM
      1 C          64.0306   86.3663   15.3186 C.ar    1  UNL1        0.0288
      2 C          64.4500   87.6766   14.7208 C.ar    1  UNL1        0.0147
      3 C          64.0244   88.9640   15.3622 C.ar    1  UNL1        0.0482
      4 C          63.1795   88.9412   16.6014 C.ar    1  UNL1        0.0177
      5 C          62.7601   87.6309   17.1992 C.ar    1  UNL1        0.0376
      6 C          63.1857   86.3434   16.5577 C.ar    1  UNL1        0.1310
      7 O          62.7663   85.0332   17.1555 O.3     1  UNL1       -0.5058
      8 H          62.2385   85.0189   17.9295 H       1  UNL1        0.2922
      9 N          64.4438   90.2743   14.7645 N.pl3   1  UNL1       -0.3125
     10 H          64.9297   90.9322   15.3124 H       1  UNL1        0.1522
     11 C          64.1228   90.5820   13.3318 C.ar    1  UNL1        0.0513
     12 C          63.1111   89.7549   12.5955 C.ar    1  UNL1        0.0353
     13 C          62.7901   90.0627   11.1630 C.ar    1  UNL1        0.1001
     14 N          63.4809   91.1976   10.4668 N.ar    1  UNL1       -0.2437
     15 C          64.4926   92.0248   11.2031 C.ar    1  UNL1        0.0833
     16 C          65.1834   93.1598   10.5069 C.ar    1  UNL1        0.0305
     17 C          66.1951   93.9869   11.2432 C.ar    1  UNL1        0.0592
     18 CL         66.8858   95.1219   10.5470 Cl      1  UNL1       -0.0822
     19 C          66.5161   93.6791   12.6758 C.ar    1  UNL1        0.0115
     20 C          65.8253   92.5442   13.3720 C.ar    1  UNL1        0.0036
     21 C          64.8136   91.7170   12.6356 C.ar    1  UNL1        0.0312
     22 C          64.4562   85.0789   14.6771 C.3     1  UNL1        0.1022
     23 N          63.4269   84.1498   14.1050 N.3     1  UNL1       -0.2689
     24 C          62.1285   81.9067   14.2857 C.3     1  UNL1        0.0188
     25 C          63.3425   82.7333   14.5910 C.3     1  UNL1        0.0724
     26 C          62.4821   84.6373   13.0469 C.3     1  UNL1        0.0724
     27 C          62.9339   84.7218   11.6191 C.3     1  UNL1        0.0188
@<TRIPOS>BOND
     1    24    25    1
     2    25    23    1
     3    23    26    1
     4    26    27    1
     5    23    22    1
     6    22     1    1
     7     1     2   ar
     8     2     3   ar
     9     3     9    1
    10     9    11    1
    11    11    12   ar
    12    12    13   ar
    13    13    14   ar
    14    14    15   ar
    15    15    16   ar
    16    16    17   ar
    17    17    18    1
    18    17    19   ar
    19    19    20   ar
    20    20    21   ar
    21     3     4   ar
    22     4     5   ar
    23     5     6   ar
    24     6     7    1
    25     6     1   ar
    26    21    11   ar
    27    21    15   ar
    28     9    10    1
    29     7     8    1
@<TRIPOS>MOLECULE
*****
 27 29 0 0 0
SMALL
GASTEIGER

@<TRIPOS>ATOM
      1 C          64.0160   86.7001   15.6353 C.ar    1  UNL1        0.0288
      2 C          64.4172   87.6436   14.5404 C.ar    1  UNL1        0.0147
      3 C          64.0617   89.0977   14.6357 C.ar    1  UNL1        0.0482
      4 C          63.3050   89.6084   15.8260 C.ar    1  UNL1        0.0177
      5 C          62.9039   88.6649   16.9209 C.ar    1  UNL1        0.0376
      6 C          63.2594   87.2107   16.8255 C.ar    1  UNL1        0.1310
      7 O          62.8583   86.2672   17.9205 O.3     1  UNL1       -0.5058
      8 H          62.3856   86.5862   18.6640 H       1  UNL1        0.2922
      9 N          64.4628   90.0412   13.5407 N.pl3   1  UNL1       -0.3125
     10 H          64.2143   89.8472   12.6081 H       1  UNL1        0.1522
     11 C          65.2428   91.2804   13.8668 C.ar    1  UNL1        0.0513
     12 C          65.8026   91.4732   15.2450 C.ar    1  UNL1        0.0353
     13 C          66.5825   92.7124   15.5710 C.ar    1  UNL1        0.1001
     14 N          66.8025   93.7586   14.5188 N.ar    1  UNL1       -0.2437
     15 C          66.2427   93.5657   13.1407 C.ar    1  UNL1        0.0833
     16 C          66.4627   94.6120   12.0886 C.ar    1  UNL1        0.0305
     17 C          65.9028   94.4191   10.7105 C.ar    1  UNL1        0.0592
     18 CL         66.1228   95.4654    9.6583 Cl      1  UNL1       -0.0822
     19 C          65.1229   93.1799   10.3844 C.ar    1  UNL1        0.0115
     20 C          64.9029   92.1337   11.4365 C.ar    1  UNL1        0.0036
     21 C          65.4628   92.3266   12.8147 C.ar    1  UNL1        0.0312
     22 C          64.3716   85.2459   15.5399 C.3     1  UNL1        0.1022
     23 N          63.5902   84.3406   14.6346 N.3     1  UNL1       -0.2689
     24 C          62.8115   85.1393   12.2881 C.3     1  UNL1        0.0188
     25 C          63.7956   84.4053   13.1501 C.3     1  UNL1        0.0724
     26 C          62.6034   83.3705   15.2136 C.3     1  UNL1        0.0724
     27 C          62.0896   82.2352   14.3788 C.3     1  UNL1        0.0188
@<TRIPOS>BOND
     1    24    25    1
     2    25    23    1
     3    23    26    1
     4    26    27    1
     5    23    22    1
     6    22     1    1
     7     1     2   ar
     8     2     3   ar
     9     3     9    1
    10     9    11    1
    11    11    12   ar
    12    12    13   ar
    13    13    14   ar
    14    14    15   ar
    15    15    16   ar
    16    16    17   ar
    17    17    18    1
    18    17    19   ar
    19    19    20   ar
    20    20    21   ar
    21     3     4   ar
    22     4     5   ar
    23     5     6   ar
    24     6     7    1
    25     6     1   ar
    26    21    11   ar
    27    21    15   ar
    28     9    10    1
    29     7     8    1
@<TRIPOS>MOLECULE
*****
 27 29 0 0 0
SMALL
GASTEIGER

@<TRIPOS>ATOM
      1 C          63.5702   87.0979   13.2183 C.ar    1  UNL1        0.0288
      2 C          63.6762   88.5877   13.3568 C.ar    1  UNL1        0.0147
      3 C          63.0673   89.4827   12.3185 C.ar    1  UNL1        0.0482
      4 C          62.3522   88.8879   11.1416 C.ar    1  UNL1        0.0177
      5 C          62.2461   87.3980   11.0032 C.ar    1  UNL1        0.0376
      6 C          62.8551   86.5031   12.0416 C.ar    1  UNL1        0.1310
      7 O          62.7491   85.0132   11.9031 O.3     1  UNL1       -0.5058
      8 H          62.3024   84.6417   11.1680 H       1  UNL1        0.2922
      9 N          63.1733   90.9725   12.4570 N.pl3   1  UNL1       -0.3125
     10 H          62.3996   91.4941   12.7709 H       1  UNL1        0.1522
     11 C          64.4583   91.6678   12.1171 C.ar    1  UNL1        0.0513
     12 C          64.7076   92.1399   10.7154 C.ar    1  UNL1        0.0353
     13 C          65.9926   92.8351   10.3755 C.ar    1  UNL1        0.1001
     14 N          67.0283   93.0581   11.4375 N.ar    1  UNL1       -0.2437
     15 C          66.7790   92.5860   12.8392 C.ar    1  UNL1        0.0833
     16 C          67.8147   92.8090   13.9011 C.ar    1  UNL1        0.0305
     17 C          67.5654   92.3369   15.3028 C.ar    1  UNL1        0.0592
     18 CL         68.6010   92.5599   16.3647 Cl      1  UNL1       -0.0822
     19 C          66.2803   91.6416   15.6427 C.ar    1  UNL1        0.0115
     20 C          65.2447   91.4186   14.5808 C.ar    1  UNL1        0.0036
     21 C          65.4940   91.8908   13.1790 C.ar    1  UNL1        0.0312
     22 C          64.1792   86.2029   14.2567 C.3     1  UNL1        0.1022
     23 N          63.4017   85.8465   15.4890 N.3     1  UNL1       -0.2689
     24 C          62.6315   86.4175   17.9037 C.3     1  UNL1        0.0188
     25 C          63.3327   86.8096   16.6369 C.3     1  UNL1        0.0724
     26 C          62.6933   84.5270   15.5733 C.3     1  UNL1        0.0724
     27 C          63.3355   83.2936   15.0111 C.3     1  UNL1        0.0188
@<TRIPOS>BOND
     1    24    25    1
     2    25    23    1
     3    23    26    1
     4    26    27    1
     5    23    22    1
     6    22     1    1
     7     1     2   ar
     8     2     3   ar
     9     3     9    1
    10     9    11    1
    11    11    12   ar
    12    12    13   ar
    13    13    14   ar
    14    14    15   ar
    15    15    16   ar
    16    16    17   ar
    17    17    18    1
    18    17    19   ar
    19    19    20   ar
    20    20    21   ar
    21     3     4   ar
    22     4     5   ar
    23     5     6   ar
    24     6     7    1
    25     6     1   ar
    26    21    11   ar
    27    21    15   ar
    28     9    10    1
    29     7     8    1
@<TRIPOS>MOLECULE
*****
 27 29 0 0 0
SMALL
GASTEIGER

@<TRIPOS>ATOM
      1 C          61.8043   86.6229   10.0500 C.ar    1  UNL1        0.0288
      2 C          62.3131   87.6044   11.0638 C.ar    1  UNL1        0.0147
      3 C          61.5269   88.8455   11.3664 C.ar    1  UNL1        0.0482
      4 C          60.2319   89.1051   10.6553 C.ar    1  UNL1        0.0177
      5 C          59.7231   88.1235    9.6415 C.ar    1  UNL1        0.0376
      6 C          60.5094   86.8824    9.3388 C.ar    1  UNL1        0.1310
      7 O          60.0006   85.9009    8.3250 O.3     1  UNL1       -0.5058
      8 H          59.1917   86.0631    7.8808 H       1  UNL1        0.2922
      9 N          62.0357   89.8270   12.3802 N.pl3   1  UNL1       -0.3125
     10 H          61.6292   89.8646   13.2761 H       1  UNL1        0.1522
     11 C          63.1638   90.7512   12.0290 C.ar    1  UNL1        0.0513
     12 C          63.3687   91.1773   10.6055 C.ar    1  UNL1        0.0353
     13 C          64.4968   92.1015   10.2544 C.ar    1  UNL1        0.1001
     14 N          65.4199   92.5995   11.3267 N.ar    1  UNL1       -0.2437
     15 C          65.2149   92.1734   12.7502 C.ar    1  UNL1        0.0833
     16 C          66.1380   92.6714   13.8225 C.ar    1  UNL1        0.0305
     17 C          65.9330   92.2452   15.2460 C.ar    1  UNL1        0.0592
     18 CL         66.8561   92.7433   16.3183 Cl      1  UNL1       -0.0822
     19 C          64.8049   91.3210   15.5972 C.ar    1  UNL1        0.0115
     20 C          63.8818   90.8230   14.5249 C.ar    1  UNL1        0.0036
     21 C          64.0868   91.2492   13.1014 C.ar    1  UNL1        0.0312
     22 C          62.5906   85.3818    9.7473 C.3     1  UNL1        0.1022
     23 N          63.0534   84.4958   10.8657 N.3     1  UNL1       -0.2689
     24 C          63.3148   84.3187   13.4445 C.3     1  UNL1        0.0188
     25 C          62.4872   84.6698   12.2437 C.3     1  UNL1        0.0724
     26 C          64.0825   83.4358   10.6060 C.3     1  UNL1        0.0724
     27 C          63.6689   81.9975   10.5054 C.3     1  UNL1        0.0188
@<TRIPOS>BOND
     1    24    25    1
     2    25    23    1
     3    23    26    1
     4    26    27    1
     5    23    22    1
     6    22     1    1
     7     1     2   ar
     8     2     3   ar
     9     3     9    1
    10     9    11    1
    11    11    12   ar
    12    12    13   ar
    13    13    14   ar
    14    14    15   ar
    15    15    16   ar
    16    16    17   ar
    17    17    18    1
    18    17    19   ar
    19    19    20   ar
    20    20    21   ar
    21     3     4   ar
    22     4     5   ar
    23     5     6   ar
    24     6     7    1
    25     6     1   ar
    26    21    11   ar
    27    21    15   ar
    28     9    10    1
    29     7     8    1
@<TRIPOS>MOLECULE
*****
 27 29 0 0 0
SMALL
GASTEIGER

@<TRIPOS>ATOM
      1 C          63.1079   84.7276   13.5195 C.ar    1  UNL1        0.0288
      2 C          62.7695   85.6600   12.3943 C.ar    1  UNL1        0.0147
      3 C          63.2123   87.0922   12.4480 C.ar    1  UNL1        0.0482
      4 C          63.9936   87.5919   13.6270 C.ar    1  UNL1        0.0177
      5 C          64.3320   86.6595   14.7522 C.ar    1  UNL1        0.0376
      6 C          63.8891   85.2273   14.6984 C.ar    1  UNL1        0.1310
      7 O          64.2275   84.2949   15.8236 O.3     1  UNL1       -0.5058
      8 H          64.7155   84.6070   16.5601 H       1  UNL1        0.2922
      9 N          62.8739   88.0246   11.3228 N.pl3   1  UNL1       -0.3125
     10 H          63.4716   88.7776   11.1109 H       1  UNL1        0.1522
     11 C          61.6248   87.8096   10.5205 C.ar    1  UNL1        0.0513
     12 C          60.3613   88.5269   10.8932 C.ar    1  UNL1        0.0353
     13 C          59.1123   88.3119   10.0909 C.ar    1  UNL1        0.1001
     14 N          59.1268   87.3796    8.9159 N.ar    1  UNL1       -0.2437
     15 C          60.3904   86.6623    8.5432 C.ar    1  UNL1        0.0833
     16 C          60.4049   85.7300    7.3682 C.ar    1  UNL1        0.0305
     17 C          61.6684   85.0127    6.9956 C.ar    1  UNL1        0.0592
     18 CL         61.6829   84.0804    5.8206 Cl      1  UNL1       -0.0822
     19 C          62.9175   85.2276    7.7979 C.ar    1  UNL1        0.0115
     20 C          62.9030   86.1600    8.9728 C.ar    1  UNL1        0.0036
     21 C          61.6394   86.8773    9.3455 C.ar    1  UNL1        0.0312
     22 C          62.6651   83.2954   13.4657 C.3     1  UNL1        0.1022
     23 N          63.5694   82.2523   12.8793 N.3     1  UNL1       -0.2689
     24 C          64.0723   82.6930   10.3687 C.3     1  UNL1        0.0188
     25 C          64.5360   82.6222   11.7935 C.3     1  UNL1        0.0724
     26 C          63.5072   80.8392   13.3786 C.3     1  UNL1        0.0724
     27 C          62.1990   80.1056   13.3926 C.3     1  UNL1        0.0188
@<TRIPOS>BOND
     1    24    25    1
     2    25    23    1
     3    23    26    1
     4    26    27    1
     5    23    22    1
     6    22     1    1
     7     1     2   ar
     8     2     3   ar
     9     3     9    1
    10     9    11    1
    11    11    12   ar
    12    12    13   ar
    13    13    14   ar
    14    14    15   ar
    15    15    16   ar
    16    16    17   ar
    17    17    18    1
    18    17    19   ar
    19    19    20   ar
    20    20    21   ar
    21     3     4   ar
    22     4     5   ar
    23     5     6   ar
    24     6     7    1
    25     6     1   ar
    26    21    11   ar
    27    21    15   ar
    28     9    10    1
    29     7     8    1
@<TRIPOS>MOLECULE
*****
 27 29 0 0 0
SMALL
GASTEIGER

@<TRIPOS>ATOM
      1 C          64.0940   87.0011   14.8590 C.ar    1  UNL1        0.0288
      2 C          63.9121   88.3517   14.2324 C.ar    1  UNL1        0.0147
      3 C          63.3470   89.4829   15.0393 C.ar    1  UNL1        0.0482
      4 C          62.9638   89.2635   16.4729 C.ar    1  UNL1        0.0177
      5 C          63.1457   87.9128   17.0995 C.ar    1  UNL1        0.0376
      6 C          63.7108   86.7816   16.2925 C.ar    1  UNL1        0.1310
      7 O          63.8926   85.4309   16.9191 O.3     1  UNL1       -0.5058
      8 H          63.6533   85.2938   17.8146 H       1  UNL1        0.2922
      9 N          63.1651   90.8336   14.4127 N.pl3   1  UNL1       -0.3125
     10 H          62.3395   91.3446   14.5754 H       1  UNL1        0.1522
     11 C          64.2413   91.4057   13.5382 C.ar    1  UNL1        0.0513
     12 C          64.0893   91.3774   12.0462 C.ar    1  UNL1        0.0353
     13 C          65.1654   91.9495   11.1718 C.ar    1  UNL1        0.1001
     14 N          66.3935   92.5499   11.7894 N.ar    1  UNL1       -0.2437
     15 C          66.5454   92.5782   13.2814 C.ar    1  UNL1        0.0833
     16 C          67.7735   93.1786   13.8989 C.ar    1  UNL1        0.0305
     17 C          67.9254   93.2069   15.3909 C.ar    1  UNL1        0.0592
     18 CL         69.1535   93.8073   16.0085 Cl      1  UNL1       -0.0822
     19 C          66.8493   92.6348   16.2654 C.ar    1  UNL1        0.0115
     20 C          65.6212   92.0344   15.6478 C.ar    1  UNL1        0.0036
     21 C          65.4693   92.0061   14.1558 C.ar    1  UNL1        0.0312
     22 C          64.6591   85.8699   14.0521 C.3     1  UNL1        0.1022
     23 N          63.7664   84.7531   13.5984 N.3     1  UNL1       -0.2689
     24 C          62.8522   84.5064   11.1790 C.3     1  UNL1        0.0188
     25 C          62.6954   85.0150   12.5814 C.3     1  UNL1        0.0724
     26 C          63.9449   83.3743   14.1616 C.3     1  UNL1        0.0724
     27 C          62.7450   82.5575   14.5397 C.3     1  UNL1        0.0188
@<TRIPOS>BOND
     1    24    25    1
     2    25    23    1
     3    23    26    1
     4    26    27    1
     5    23    22    1
     6    22     1    1
     7     1     2   ar
     8     2     3   ar
     9     3     9    1
    10     9    11    1
    11    11    12   ar
    12    12    13   ar
    13    13    14   ar
    14    14    15   ar
    15    15    16   ar
    16    16    17   ar
    17    17    18    1
    18    17    19   ar
    19    19    20   ar
    20    20    21   ar
    21     3     4   ar
    22     4     5   ar
    23     5     6   ar
    24     6     7    1
    25     6     1   ar
    26    21    11   ar
    27    21    15   ar
    28     9    10    1
    29     7     8    1
@<TRIPOS>MOLECULE
*****
 27 29 0 0 0
SMALL
GASTEIGER

@<TRIPOS>ATOM
      1 C          63.1170   84.5998   13.5621 C.ar    1  UNL1        0.0288
      2 C          62.7823   85.5621   12.4612 C.ar    1  UNL1        0.0147
      3 C          63.2454   86.9864   12.5436 C.ar    1  UNL1        0.0482
      4 C          64.0432   87.4485   13.7269 C.ar    1  UNL1        0.0177
      5 C          64.3778   86.4862   14.8278 C.ar    1  UNL1        0.0376
      6 C          63.9147   85.0618   14.7453 C.ar    1  UNL1        0.1310
      7 O          64.2494   84.0995   15.8462 O.3     1  UNL1       -0.5058
      8 H          64.7477   84.3881   16.5854 H       1  UNL1        0.2922
      9 N          62.9107   87.9487   11.4427 N.pl3   1  UNL1       -0.3125
     10 H          63.5169   88.6983   11.2429 H       1  UNL1        0.1522
     11 C          61.6524   87.7690   10.6462 C.ar    1  UNL1        0.0513
     12 C          60.4010   88.4921   11.0475 C.ar    1  UNL1        0.0353
     13 C          59.1427   88.3123   10.2510 C.ar    1  UNL1        0.1001
     14 N          59.1359   87.4094    9.0532 N.ar    1  UNL1       -0.2437
     15 C          60.3873   86.6863    8.6519 C.ar    1  UNL1        0.0833
     16 C          60.3804   85.7835    7.4540 C.ar    1  UNL1        0.0305
     17 C          61.6318   85.0604    7.0527 C.ar    1  UNL1        0.0592
     18 CL         61.6249   84.1575    5.8549 Cl      1  UNL1       -0.0822
     19 C          62.8901   85.2401    7.8492 C.ar    1  UNL1        0.0115
     20 C          62.8970   86.1430    9.0470 C.ar    1  UNL1        0.0036
     21 C          61.6455   86.8661    9.4484 C.ar    1  UNL1        0.0312
     22 C          62.6539   83.1754   13.4797 C.3     1  UNL1        0.1022
     23 N          63.2885   82.2360   12.4975 N.3     1  UNL1       -0.2689
     24 C          62.2214   80.0783   13.4751 C.3     1  UNL1        0.0188
     25 C          62.7189   80.8629   12.2973 C.3     1  UNL1        0.0724
     26 C          64.4927   82.6698   11.7154 C.3     1  UNL1        0.0724
     27 C          64.3852   82.8952   10.2363 C.3     1  UNL1        0.0188
@<TRIPOS>BOND
     1    24    25    1
     2    25    23    1
     3    23    26    1
     4    26    27    1
     5    23    22    1
     6    22     1    1
     7     1     2   ar
     8     2     3   ar
     9     3     9    1
    10     9    11    1
    11    11    12   ar
    12    12    13   ar
    13    13    14   ar
    14    14    15   ar
    15    15    16   ar
    16    16    17   ar
    17    17    18    1
    18    17    19   ar
    19    19    20   ar
    20    20    21   ar
    21     3     4   ar
    22     4     5   ar
    23     5     6   ar
    24     6     7    1
    25     6     1   ar
    26    21    11   ar
    27    21    15   ar
    28     9    10    1
    29     7     8    1
