@<TRIPOS>MOLECULE
*****
 27 29 0 0 0
SMALL
GASTEIGER

@<TRIPOS>ATOM
      1 N          64.5393   90.6681   14.0429 N.3     1  UNL1       -0.1549
      2 C          64.4161   89.2981   13.4446 C.3     1  UNL1        0.1002
      3 C          63.9420   88.1515   14.2874 C.3     1  UNL1        0.0418
      4 C          63.5910   88.3748   15.7286 C.2     1  UNL1       -0.0331
      5 C          63.1169   87.2281   16.5714 C.2     1  UNL1        0.0412
      6 C          63.7142   89.7447   16.3268 C.3     1  UNL1        0.0418
      7 C          64.1883   90.8914   15.4840 C.3     1  UNL1        0.1002
      8 S          65.0134   91.8147   13.2000 S.O2    1  UNL1        0.0633
      9 O          65.7141   92.3999   14.3903 O.2     1  UNL1       -0.1528
     10 O          64.3127   91.2296   12.0098 O.2     1  UNL1       -0.1528
     11 C          66.4358   95.2547   10.6715 C.ar    1  UNL1        0.1388
     12 C          66.5631   95.3185   12.1647 C.ar    1  UNL1        0.0383
     13 C          66.0890   94.1718   13.0075 C.ar    1  UNL1        0.0230
     14 C          65.4875   92.9614   12.3572 C.ar    1  UNL1        0.1224
     15 C          65.3601   92.8976   10.8640 C.ar    1  UNL1        0.0230
     16 C          65.8343   94.0443   10.0212 C.ar    1  UNL1        0.0383
     17 C          67.3267   96.1653    8.4072 C.3     1  UNL1        0.2525
     18 O          66.9099   96.4014    9.8287 O.3     1  UNL1       -0.4714
     19 C          62.9938   85.8581   15.9731 C.1     1  UNL1       -0.0583
     20 C          62.8707   84.4881   15.3748 C.1     1  UNL1       -0.0405
     21 C          62.7475   83.1181   14.7765 C.ar    1  UNL1        0.1224
     22 C          63.9509   82.4484   14.1820 C.ar    1  UNL1        0.0276
     23 C          63.8277   81.0784   13.5837 C.ar    1  UNL1        0.0034
     24 C          62.5012   80.3782   13.5799 C.ar    1  UNL1        0.0148
     25 C          61.2979   81.0479   14.1743 C.ar    1  UNL1        0.0600
     26 C          59.9714   80.3476   14.1704 C.3     1  UNL1        0.0521
     27 N          61.4210   82.4179   14.7726 N.ar    1  UNL1       -0.2414
@<TRIPOS>BOND
     1    17    18    1
     2    18    11    1
     3    11    12   ar
     4    12    13   ar
     5    13    14   ar
     6    14     8    1
     7     8     9    2
     8     8    10    2
     9     8     1    1
    10     1     2    1
    11     2     3    1
    12     3     4    1
    13     4     5    2
    14     5    19    1
    15    19    20    3
    16    20    21    1
    17    21    22   ar
    18    22    23   ar
    19    23    24   ar
    20    24    25   ar
    21    25    26    1
    22    25    27   ar
    23     4     6    1
    24     6     7    1
    25    14    15   ar
    26    15    16   ar
    27    16    11   ar
    28     7     1    1
    29    27    21   ar
@<TRIPOS>MOLECULE
*****
 27 29 0 0 0
SMALL
GASTEIGER

@<TRIPOS>ATOM
      1 N          61.2561   92.5890    2.7818 N.3     1  UNL1       -0.1549
      2 C          61.8891   91.6489    3.7644 C.3     1  UNL1        0.1002
      3 C          61.0434   90.9563    4.7915 C.3     1  UNL1        0.0418
      4 C          59.5646   91.2037    4.8360 C.2     1  UNL1       -0.0331
      5 C          58.7189   90.5110    5.8631 C.2     1  UNL1        0.0412
      6 C          58.9316   92.1437    3.8534 C.3     1  UNL1        0.0418
      7 C          59.7774   92.8364    2.8263 C.3     1  UNL1        0.1002
      8 S          62.1019   93.2817    1.7547 S.O2    1  UNL1        0.0633
      9 O          60.8679   93.6434    0.9825 O.2     1  UNL1       -0.1528
     10 O          63.3359   92.9199    2.5269 O.2     1  UNL1       -0.1528
     11 C          64.6391   95.3596   -1.3266 C.ar    1  UNL1        0.1388
     12 C          64.9573   95.5093    0.1316 C.ar    1  UNL1        0.0383
     13 C          64.1115   94.8166    1.1587 C.ar    1  UNL1        0.0230
     14 C          62.9476   93.9743    0.7276 C.ar    1  UNL1        0.1224
     15 C          62.6295   93.8247   -0.7306 C.ar    1  UNL1        0.0230
     16 C          63.4753   94.5173   -1.7577 C.ar    1  UNL1        0.0383
     17 C          65.0425   96.0921   -3.7864 C.3     1  UNL1        0.2525
     18 O          65.4849   96.0523   -2.3537 O.3     1  UNL1       -0.4714
     19 C          59.3519   89.5709    6.8457 C.1     1  UNL1       -0.0583
     20 C          59.9849   88.6308    7.8283 C.1     1  UNL1       -0.0405
     21 C          60.6179   87.6907    8.8109 C.ar    1  UNL1        0.1224
     22 C          60.2556   87.7693   10.2644 C.ar    1  UNL1        0.0276
     23 C          60.8886   86.8292   11.2470 C.ar    1  UNL1        0.0034
     24 C          61.8840   85.8105   10.7762 C.ar    1  UNL1        0.0148
     25 C          62.2463   85.7320    9.3227 C.ar    1  UNL1        0.0600
     26 C          63.2416   84.7133    8.8519 C.3     1  UNL1        0.0521
     27 N          61.6133   86.6721    8.3401 N.ar    1  UNL1       -0.2414
@<TRIPOS>BOND
     1    17    18    1
     2    18    11    1
     3    11    12   ar
     4    12    13   ar
     5    13    14   ar
     6    14     8    1
     7     8     9    2
     8     8    10    2
     9     8     1    1
    10     1     2    1
    11     2     3    1
    12     3     4    1
    13     4     5    2
    14     5    19    1
    15    19    20    3
    16    20    21    1
    17    21    22   ar
    18    22    23   ar
    19    23    24   ar
    20    24    25   ar
    21    25    26    1
    22    25    27   ar
    23     4     6    1
    24     6     7    1
    25    14    15   ar
    26    15    16   ar
    27    16    11   ar
    28     7     1    1
    29    27    21   ar
@<TRIPOS>MOLECULE
*****
 27 29 0 0 0
SMALL
GASTEIGER

@<TRIPOS>ATOM
      1 N          63.7003   86.7591   14.5496 N.3     1  UNL1       -0.1549
      2 C          64.2668   87.6015   13.4454 C.3     1  UNL1        0.1002
      3 C          64.5413   89.0577   13.6783 C.3     1  UNL1        0.0418
      4 C          64.2493   89.6714   15.0154 C.2     1  UNL1       -0.0331
      5 C          64.5238   91.1276   15.2483 C.2     1  UNL1        0.0412
      6 C          63.6828   88.8290   16.1196 C.3     1  UNL1        0.0418
      7 C          63.4083   87.3729   15.8867 C.3     1  UNL1        0.1002
      8 S          63.4258   85.3029   14.3167 S.O2    1  UNL1        0.0633
      9 O          62.9571   85.6137   12.9261 O.2     1  UNL1       -0.1528
     10 O          63.8946   84.9922   15.7073 O.2     1  UNL1       -0.1528
     11 C          62.6024   80.9344   13.6180 C.ar    1  UNL1        0.1388
     12 C          63.7884   81.5868   12.9717 C.ar    1  UNL1        0.0383
     13 C          64.0629   83.0430   13.2046 C.ar    1  UNL1        0.0230
     14 C          63.1514   83.8468   14.0838 C.ar    1  UNL1        0.1224
     15 C          61.9654   83.1944   14.7301 C.ar    1  UNL1        0.0230
     16 C          61.6909   81.7382   14.4972 C.ar    1  UNL1        0.0383
     17 C          62.5170   78.8885   12.0190 C.3     1  UNL1        0.2525
     18 O          62.3279   79.4783   13.3851 O.3     1  UNL1       -0.4714
     19 C          65.0903   91.9700   14.1440 C.1     1  UNL1       -0.0583
     20 C          65.6568   92.8125   13.0398 C.1     1  UNL1       -0.0405
     21 C          66.2233   93.6549   11.9355 C.ar    1  UNL1        0.1224
     22 C          66.0139   95.1402   11.9424 C.ar    1  UNL1        0.0276
     23 C          66.5804   95.9826   10.8382 C.ar    1  UNL1        0.0034
     24 C          67.3562   95.3398    9.7270 C.ar    1  UNL1        0.0148
     25 C          67.5656   93.8545    9.7200 C.ar    1  UNL1        0.0600
     26 C          68.3415   93.2117    8.6088 C.3     1  UNL1        0.0521
     27 N          66.9991   93.0120   10.8243 N.ar    1  UNL1       -0.2414
@<TRIPOS>BOND
     1    17    18    1
     2    18    11    1
     3    11    12   ar
     4    12    13   ar
     5    13    14   ar
     6    14     8    1
     7     8     9    2
     8     8    10    2
     9     8     1    1
    10     1     2    1
    11     2     3    1
    12     3     4    1
    13     4     5    2
    14     5    19    1
    15    19    20    3
    16    20    21    1
    17    21    22   ar
    18    22    23   ar
    19    23    24   ar
    20    24    25   ar
    21    25    26    1
    22    25    27   ar
    23     4     6    1
    24     6     7    1
    25    14    15   ar
    26    15    16   ar
    27    16    11   ar
    28     7     1    1
    29    27    21   ar
@<TRIPOS>MOLECULE
*****
 27 29 0 0 0
SMALL
GASTEIGER

@<TRIPOS>ATOM
      1 N          63.1765   84.1860   14.0251 N.3     1  UNL1       -0.1549
      2 C          63.7632   85.3984   13.3651 C.3     1  UNL1        0.1002
      3 C          63.8915   86.6814   14.1315 C.3     1  UNL1        0.0418
      4 C          63.4331   86.7520   15.5580 C.2     1  UNL1       -0.0331
      5 C          63.5614   88.0350   16.3244 C.2     1  UNL1        0.0412
      6 C          62.8464   85.5395   16.2180 C.3     1  UNL1        0.0418
      7 C          62.7181   84.2565   15.4516 C.3     1  UNL1        0.1002
      8 S          63.0482   82.9029   13.2587 S.O2    1  UNL1        0.0633
      9 O          63.2867   82.1260   14.5194 O.2     1  UNL1       -0.1528
     10 O          62.8098   83.6799   11.9979 O.2     1  UNL1       -0.1528
     11 C          62.6634   79.0539   10.9594 C.ar    1  UNL1        0.1388
     12 C          62.4226   79.0705   12.4398 C.ar    1  UNL1        0.0383
     13 C          62.5509   80.3535   13.2062 C.ar    1  UNL1        0.0230
     14 C          62.9200   81.6199   12.4922 C.ar    1  UNL1        0.1224
     15 C          63.1607   81.6034   11.0118 C.ar    1  UNL1        0.0230
     16 C          63.0325   80.3204   10.2454 C.ar    1  UNL1        0.0383
     17 C          63.5314   76.6693   10.4024 C.3     1  UNL1        0.2525
     18 O          62.5351   77.7709   10.1929 O.3     1  UNL1       -0.4714
     19 C          64.1480   89.2475   15.6644 C.1     1  UNL1       -0.0583
     20 C          64.7347   90.4600   15.0042 C.1     1  UNL1       -0.0405
     21 C          65.3214   91.6724   14.3442 C.ar    1  UNL1        0.1224
     22 C          66.1736   92.6192   15.1364 C.ar    1  UNL1        0.0276
     23 C          66.7603   93.8317   14.4763 C.ar    1  UNL1        0.0034
     24 C          66.4948   94.0975   13.0241 C.ar    1  UNL1        0.0148
     25 C          65.6427   93.1508   12.2320 C.ar    1  UNL1        0.0600
     26 C          65.3772   93.4165   10.7798 C.3     1  UNL1        0.0521
     27 N          65.0559   91.9382   12.8920 N.ar    1  UNL1       -0.2414
@<TRIPOS>BOND
     1    17    18    1
     2    18    11    1
     3    11    12   ar
     4    12    13   ar
     5    13    14   ar
     6    14     8    1
     7     8     9    2
     8     8    10    2
     9     8     1    1
    10     1     2    1
    11     2     3    1
    12     3     4    1
    13     4     5    2
    14     5    19    1
    15    19    20    3
    16    20    21    1
    17    21    22   ar
    18    22    23   ar
    19    23    24   ar
    20    24    25   ar
    21    25    26    1
    22    25    27   ar
    23     4     6    1
    24     6     7    1
    25    14    15   ar
    26    15    16   ar
    27    16    11   ar
    28     7     1    1
    29    27    21   ar
@<TRIPOS>MOLECULE
*****
 27 29 0 0 0
SMALL
GASTEIGER

@<TRIPOS>ATOM
      1 N          63.7800   90.2002   12.2121 N.3     1  UNL1       -0.1549
      2 C          63.1609   90.9564   11.0742 C.3     1  UNL1        0.1002
      3 C          62.1596   90.2833   10.1830 C.3     1  UNL1        0.0418
      4 C          61.7773   88.8540   10.4297 C.2     1  UNL1       -0.0331
      5 C          60.7760   88.1809    9.5385 C.2     1  UNL1        0.0412
      6 C          62.3964   88.0978   11.5677 C.3     1  UNL1        0.0418
      7 C          63.3977   88.7710   12.4589 C.3     1  UNL1        0.1002
      8 S          64.7813   90.8734   13.1033 S.O2    1  UNL1        0.0633
      9 O          64.6411   89.7616   14.1005 O.2     1  UNL1       -0.1528
     10 O          64.9215   91.9851   12.1061 O.2     1  UNL1       -0.1528
     11 C          67.7853   92.8927   15.7769 C.ar    1  UNL1        0.1388
     12 C          68.1576   92.5308   14.3697 C.ar    1  UNL1        0.0383
     13 C          67.1563   91.8576   13.4785 C.ar    1  UNL1        0.0230
     14 C          65.7826   91.5465   13.9945 C.ar    1  UNL1        0.1224
     15 C          65.4104   91.9084   15.4018 C.ar    1  UNL1        0.0230
     16 C          66.4117   92.5816   16.2930 C.ar    1  UNL1        0.0383
     17 C          69.7161   94.5998   16.1052 C.3     1  UNL1        0.2525
     18 O          68.7866   93.5658   16.6681 O.3     1  UNL1       -0.4714
     19 C          60.1569   88.9371    8.4006 C.1     1  UNL1       -0.0583
     20 C          59.5379   89.6933    7.2626 C.1     1  UNL1       -0.0405
     21 C          58.9188   90.4495    6.1247 C.ar    1  UNL1        0.1224
     22 C          57.4339   90.4082    5.9164 C.ar    1  UNL1        0.0276
     23 C          56.8148   91.1644    4.7785 C.ar    1  UNL1        0.0034
     24 C          57.6807   91.9619    3.8488 C.ar    1  UNL1        0.0148
     25 C          59.1655   92.0032    4.0570 C.ar    1  UNL1        0.0600
     26 C          60.0314   92.8007    3.1273 C.3     1  UNL1        0.0521
     27 N          59.7847   91.2470    5.1950 N.ar    1  UNL1       -0.2414
@<TRIPOS>BOND
     1    17    18    1
     2    18    11    1
     3    11    12   ar
     4    12    13   ar
     5    13    14   ar
     6    14     8    1
     7     8     9    2
     8     8    10    2
     9     8     1    1
    10     1     2    1
    11     2     3    1
    12     3     4    1
    13     4     5    2
    14     5    19    1
    15    19    20    3
    16    20    21    1
    17    21    22   ar
    18    22    23   ar
    19    23    24   ar
    20    24    25   ar
    21    25    26    1
    22    25    27   ar
    23     4     6    1
    24     6     7    1
    25    14    15   ar
    26    15    16   ar
    27    16    11   ar
    28     7     1    1
    29    27    21   ar
@<TRIPOS>MOLECULE
*****
 27 29 0 0 0
SMALL
GASTEIGER

@<TRIPOS>ATOM
      1 N          60.0139   91.9205    4.1058 N.3     1  UNL1       -0.1549
      2 C          60.9865   90.9896    4.7673 C.3     1  UNL1        0.1002
      3 C          60.5040   90.0027    5.7887 C.3     1  UNL1        0.0418
      4 C          59.0489   89.9466    6.1485 C.2     1  UNL1       -0.0331
      5 C          58.5664   88.9596    7.1698 C.2     1  UNL1        0.0412
      6 C          58.0763   90.8774    5.4870 C.3     1  UNL1        0.0418
      7 C          58.5588   91.8644    4.4657 C.3     1  UNL1        0.1002
      8 S          60.4964   92.9074    3.0845 S.O2    1  UNL1        0.0633
      9 O          61.3876   91.8571    2.4906 O.2     1  UNL1       -0.1528
     10 O          59.6053   93.9577    3.6784 O.2     1  UNL1       -0.1528
     11 C          61.9440   95.8683    0.0205 C.ar    1  UNL1        0.1388
     12 C          60.7175   96.1666    0.8309 C.ar    1  UNL1        0.0383
     13 C          60.2350   95.1796    1.8522 C.ar    1  UNL1        0.0230
     14 C          60.9790   93.8944    2.0632 C.ar    1  UNL1        0.1224
     15 C          62.2054   93.5960    1.2528 C.ar    1  UNL1        0.0230
     16 C          62.6879   94.5830    0.2315 C.ar    1  UNL1        0.0383
     17 C          62.7517   96.3969   -2.3915 C.3     1  UNL1        0.2525
     18 O          62.4265   96.8552   -1.0008 O.3     1  UNL1       -0.4714
     19 C          59.5389   88.0288    7.8313 C.1     1  UNL1       -0.0583
     20 C          60.5115   87.0979    8.4928 C.1     1  UNL1       -0.0405
     21 C          61.4841   86.1670    9.1543 C.ar    1  UNL1        0.1224
     22 C          62.5174   85.4544    8.3330 C.ar    1  UNL1        0.0276
     23 C          63.4900   84.5236    8.9945 C.ar    1  UNL1        0.0034
     24 C          63.4293   84.3053   10.4773 C.ar    1  UNL1        0.0148
     25 C          62.3960   85.0178   11.2986 C.ar    1  UNL1        0.0600
     26 C          62.3353   84.7995   12.7814 C.3     1  UNL1        0.0521
     27 N          61.4234   85.9487   10.6371 N.ar    1  UNL1       -0.2414
@<TRIPOS>BOND
     1    17    18    1
     2    18    11    1
     3    11    12   ar
     4    12    13   ar
     5    13    14   ar
     6    14     8    1
     7     8     9    2
     8     8    10    2
     9     8     1    1
    10     1     2    1
    11     2     3    1
    12     3     4    1
    13     4     5    2
    14     5    19    1
    15    19    20    3
    16    20    21    1
    17    21    22   ar
    18    22    23   ar
    19    23    24   ar
    20    24    25   ar
    21    25    26    1
    22    25    27   ar
    23     4     6    1
    24     6     7    1
    25    14    15   ar
    26    15    16   ar
    27    16    11   ar
    28     7     1    1
    29    27    21   ar
