@<TRIPOS>MOLECULE
*****
 32 37 0 0 0
SMALL
GASTEIGER

@<TRIPOS>ATOM
      1 C          62.2046   85.2956   11.5660 C.ar    1  UNL1        0.1025
      2 N          61.2737   85.3121   10.3899 N.ar    1  UNL1       -0.1480
      3 N          60.8925   86.6158    9.7535 N.ar    1  UNL1       -0.1464
      4 C          61.4421   87.9029   10.2932 C.ar    1  UNL1        0.1221
      5 C          62.3730   87.8864   11.4692 C.ar    1  UNL1        0.0225
      6 C          62.9226   89.1735   12.0089 C.ar    1  UNL1        0.0017
      7 C          63.8535   89.1569   13.1849 C.ar    1  UNL1        0.0028
      8 C          64.2348   87.8532   13.8214 C.ar    1  UNL1        0.0001
      9 C          63.6852   86.5661   13.2817 C.ar    1  UNL1        0.0016
     10 C          62.7542   86.5827   12.1056 C.ar    1  UNL1        0.0209
     11 C          64.4032   90.4440   13.7246 C.ar    1  UNL1        0.0333
     12 C          64.3709   90.7133   15.1999 C.ar    1  UNL1       -0.0188
     13 C          63.7890   89.6955   16.1354 C.3     1  UNL1        0.0311
     14 C          64.9206   92.0004   15.7395 C.ar    1  UNL1       -0.0040
     15 C          65.5025   93.0182   14.8039 C.ar    1  UNL1        0.0057
     16 C          65.5347   92.7490   13.3286 C.ar    1  UNL1        0.0717
     17 C          66.0418   93.5577   12.1715 C.ar    1  UNL1        0.1704
     18 N          65.8056   92.7705   10.9169 N.ar    1  UNL1       -0.0621
     19 O          65.1525   91.4752   11.2984 O.2     1  UNL1       -0.3522
     20 C          64.9851   91.4619   12.7889 C.ar    1  UNL1        0.1777
     21 N          66.6741   94.9154   12.2547 N.pl3   1  UNL1       -0.3171
     22 H          67.2894   95.1275   12.9934 H       1  UNL1        0.1482
     23 C          66.3689   95.9500   11.2124 C.3     1  UNL1        0.0706
     24 C          66.8268   96.8554   10.1076 C.3     1  UNL1        0.0212
     25 C          65.3825   96.8366   10.5118 C.3     1  UNL1        0.0212
     26 C          63.9482   83.3559   10.0834 C.3     1  UNL1        0.0311
     27 C          63.4577   83.0220   11.4611 C.ar    1  UNL1       -0.0203
     28 C          63.8390   81.7184   12.0975 C.ar    1  UNL1       -0.0042
     29 C          63.3485   81.3844   13.4752 C.ar    1  UNL1       -0.0003
     30 C          62.4767   82.3543   14.2165 C.ar    1  UNL1        0.0000
     31 C          62.0954   83.6580   13.5800 C.ar    1  UNL1        0.0012
     32 C          62.5859   83.9918   12.2024 C.ar    1  UNL1        0.0155
@<TRIPOS>BOND
     1    26    27    1
     2    27    28   ar
     3    28    29   ar
     4    29    30   ar
     5    30    31   ar
     6    31    32   ar
     7    32     1    1
     8     1     2   ar
     9     2     3   ar
    10     3     4   ar
    11     4     5   ar
    12     5     6   ar
    13     6     7   ar
    14     7    11    1
    15    11    12   ar
    16    12    13    1
    17    12    14   ar
    18    14    15   ar
    19    15    16   ar
    20    16    17   ar
    21    17    21    1
    22    21    23    1
    23    23    24    1
    24    24    25    1
    25    17    18   ar
    26    18    19   ar
    27    19    20   ar
    28     7     8   ar
    29     8     9   ar
    30     9    10   ar
    31    32    27   ar
    32    10     1   ar
    33    10     5   ar
    34    20    11   ar
    35    20    16   ar
    36    25    23    1
    37    21    22    1
@<TRIPOS>MOLECULE
*****
 32 37 0 0 0
SMALL
GASTEIGER

@<TRIPOS>ATOM
      1 C          62.1625   85.6882   10.9710 C.ar    1  UNL1        0.1025
      2 N          62.4425   84.2605   11.3361 N.ar    1  UNL1       -0.1480
      3 N          63.2347   83.9434   12.5698 N.ar    1  UNL1       -0.1464
      4 C          63.7468   85.0540   13.4383 C.ar    1  UNL1        0.1221
      5 C          63.4668   86.4817   13.0732 C.ar    1  UNL1        0.0225
      6 C          63.9789   87.5922   13.9418 C.ar    1  UNL1        0.0017
      7 C          63.6989   89.0199   13.5766 C.ar    1  UNL1        0.0028
      8 C          62.9067   89.3370   12.3429 C.ar    1  UNL1        0.0001
      9 C          62.3946   88.2265   11.4744 C.ar    1  UNL1        0.0016
     10 C          62.6747   86.7988   11.8396 C.ar    1  UNL1        0.0209
     11 C          64.2110   90.1305   14.4452 C.ar    1  UNL1        0.0333
     12 C          63.7493   90.2437   15.8678 C.ar    1  UNL1       -0.0188
     13 C          62.7755   89.2465   16.4219 C.3     1  UNL1        0.0311
     14 C          64.2615   91.3543   16.7364 C.ar    1  UNL1       -0.0040
     15 C          65.2352   92.3516   16.1823 C.ar    1  UNL1        0.0057
     16 C          65.6970   92.2384   14.7595 C.ar    1  UNL1        0.0717
     17 C          66.6435   93.0670   13.9424 C.ar    1  UNL1        0.1704
     18 N          66.7163   92.4685   12.5690 N.ar    1  UNL1       -0.0621
     19 O          65.8148   91.2701   12.5371 O.2     1  UNL1       -0.3522
     20 C          65.1849   91.1278   13.8910 C.ar    1  UNL1        0.1777
     21 N          67.3866   94.2809   14.4158 N.pl3   1  UNL1       -0.3171
     22 H          67.1616   95.1682   14.0534 H       1  UNL1        0.1482
     23 C          68.4725   94.1430   15.4414 C.3     1  UNL1        0.0706
     24 C          69.4986   94.7685   16.3391 C.3     1  UNL1        0.0212
     25 C          69.3273   93.2785   16.3200 C.3     1  UNL1        0.0212
     26 C          63.1372   84.7716    8.2859 C.3     1  UNL1        0.0311
     27 C          61.8577   85.5471    8.3947 C.ar    1  UNL1       -0.0203
     28 C          61.0656   85.8642    7.1610 C.ar    1  UNL1       -0.0042
     29 C          59.7861   86.6396    7.2699 C.ar    1  UNL1       -0.0003
     30 C          59.2988   87.0978    8.6125 C.ar    1  UNL1        0.0000
     31 C          60.0910   86.7807    9.8462 C.ar    1  UNL1        0.0012
     32 C          61.3704   86.0053    9.7373 C.ar    1  UNL1        0.0155
@<TRIPOS>BOND
     1    26    27    1
     2    27    28   ar
     3    28    29   ar
     4    29    30   ar
     5    30    31   ar
     6    31    32   ar
     7    32     1    1
     8     1     2   ar
     9     2     3   ar
    10     3     4   ar
    11     4     5   ar
    12     5     6   ar
    13     6     7   ar
    14     7    11    1
    15    11    12   ar
    16    12    13    1
    17    12    14   ar
    18    14    15   ar
    19    15    16   ar
    20    16    17   ar
    21    17    21    1
    22    21    23    1
    23    23    24    1
    24    24    25    1
    25    17    18   ar
    26    18    19   ar
    27    19    20   ar
    28     7     8   ar
    29     8     9   ar
    30     9    10   ar
    31    32    27   ar
    32    10     1   ar
    33    10     5   ar
    34    20    11   ar
    35    20    16   ar
    36    25    23    1
    37    21    22    1
@<TRIPOS>MOLECULE
*****
 32 37 0 0 0
SMALL
GASTEIGER

@<TRIPOS>ATOM
      1 C          62.2161   85.6449   10.9949 C.ar    1  UNL1        0.1025
      2 N          61.3329   85.9415    9.8194 N.ar    1  UNL1       -0.1480
      3 N          60.9440   87.3571    9.5118 N.ar    1  UNL1       -0.1464
      4 C          61.4383   88.4762   10.3798 C.ar    1  UNL1        0.1221
      5 C          62.3215   88.1796   11.5554 C.ar    1  UNL1        0.0225
      6 C          62.8158   89.2986   12.4233 C.ar    1  UNL1        0.0017
      7 C          63.6990   89.0020   13.5989 C.ar    1  UNL1        0.0028
      8 C          64.0879   87.5863   13.9065 C.ar    1  UNL1        0.0001
      9 C          63.5936   86.4672   13.0385 C.ar    1  UNL1        0.0016
     10 C          62.7104   86.7639   11.8629 C.ar    1  UNL1        0.0209
     11 C          64.1933   90.1211   14.4669 C.ar    1  UNL1        0.0333
     12 C          63.7102   90.2423   15.8817 C.ar    1  UNL1       -0.0188
     13 C          62.7328   89.2446   16.4286 C.3     1  UNL1        0.0311
     14 C          64.2045   91.3614   16.7497 C.ar    1  UNL1       -0.0040
     15 C          65.1819   92.3591   16.2028 C.ar    1  UNL1        0.0057
     16 C          65.6651   92.2379   14.7879 C.ar    1  UNL1        0.0717
     17 C          66.6198   93.0650   13.9789 C.ar    1  UNL1        0.1704
     18 N          66.7155   92.4571   12.6110 N.ar    1  UNL1       -0.0621
     19 O          65.8200   91.2543   12.5745 O.2     1  UNL1       -0.3522
     20 C          65.1708   91.1188   13.9199 C.ar    1  UNL1        0.1777
     21 N          67.3505   94.2856   14.4544 N.pl3   1  UNL1       -0.3171
     22 H          67.1008   95.1738   14.1109 H       1  UNL1        0.1482
     23 C          68.4615   94.1530   15.4534 C.3     1  UNL1        0.0706
     24 C          69.4734   94.7853   16.3625 C.3     1  UNL1        0.0212
     25 C          69.3741   93.2911   16.2746 C.3     1  UNL1        0.0212
     26 C          63.8069   84.0603    9.0054 C.3     1  UNL1        0.0311
     27 C          63.4004   83.4369   10.3078 C.ar    1  UNL1       -0.0203
     28 C          63.7894   82.0212   10.6153 C.ar    1  UNL1       -0.0042
     29 C          63.3829   81.3978   11.9177 C.ar    1  UNL1       -0.0003
     30 C          62.5874   82.1901   12.9125 C.ar    1  UNL1        0.0000
     31 C          62.1985   83.6058   12.6049 C.ar    1  UNL1        0.0012
     32 C          62.6050   84.2292   11.3026 C.ar    1  UNL1        0.0155
@<TRIPOS>BOND
     1    26    27    1
     2    27    28   ar
     3    28    29   ar
     4    29    30   ar
     5    30    31   ar
     6    31    32   ar
     7    32     1    1
     8     1     2   ar
     9     2     3   ar
    10     3     4   ar
    11     4     5   ar
    12     5     6   ar
    13     6     7   ar
    14     7    11    1
    15    11    12   ar
    16    12    13    1
    17    12    14   ar
    18    14    15   ar
    19    15    16   ar
    20    16    17   ar
    21    17    21    1
    22    21    23    1
    23    23    24    1
    24    24    25    1
    25    17    18   ar
    26    18    19   ar
    27    19    20   ar
    28     7     8   ar
    29     8     9   ar
    30     9    10   ar
    31    32    27   ar
    32    10     1   ar
    33    10     5   ar
    34    20    11   ar
    35    20    16   ar
    36    25    23    1
    37    21    22    1
@<TRIPOS>MOLECULE
*****
 32 37 0 0 0
SMALL
GASTEIGER

@<TRIPOS>ATOM
      1 C          63.4781   83.6709   13.8939 C.ar    1  UNL1        0.1025
      2 N          64.4348   83.9221   15.0215 N.ar    1  UNL1       -0.1480
      3 N          64.9291   85.3126   15.2900 N.ar    1  UNL1       -0.1464
      4 C          64.4667   86.4519   14.4309 C.ar    1  UNL1        0.1221
      5 C          63.5100   86.2007   13.3033 C.ar    1  UNL1        0.0225
      6 C          63.0476   87.3401   12.4441 C.ar    1  UNL1        0.0017
      7 C          62.0909   87.0889   11.3165 C.ar    1  UNL1        0.0028
      8 C          61.5965   85.6983   11.0479 C.ar    1  UNL1        0.0001
      9 C          62.0589   84.5590   11.9071 C.ar    1  UNL1        0.0016
     10 C          63.0157   84.8102   13.0348 C.ar    1  UNL1        0.0209
     11 C          61.6285   88.2282   10.4574 C.ar    1  UNL1        0.0333
     12 C          62.1548   89.6118   10.6994 C.ar    1  UNL1       -0.0188
     13 C          63.1436   89.8560   11.8006 C.3     1  UNL1        0.0311
     14 C          61.6924   90.7511    9.8403 C.ar    1  UNL1       -0.0040
     15 C          60.7037   90.5069    8.7391 C.ar    1  UNL1        0.0057
     16 C          60.1773   89.1233    8.4970 C.ar    1  UNL1        0.0717
     17 C          59.2025   88.5815    7.4939 C.ar    1  UNL1        0.1704
     18 N          59.0624   87.1074    7.7331 N.ar    1  UNL1       -0.0621
     19 O          59.9506   86.7380    8.8840 O.2     1  UNL1       -0.3522
     20 C          60.6397   87.9839    9.3561 C.ar    1  UNL1        0.1777
     21 N          58.4924   89.3746    6.4372 N.pl3   1  UNL1       -0.3171
     22 H          57.5349   89.2216    6.2670 H       1  UNL1        0.1482
     23 C          59.2412   90.4010    5.6397 C.3     1  UNL1        0.0706
     24 C          59.2585   91.6865    4.8670 C.3     1  UNL1        0.0212
     25 C          60.5209   90.8931    5.0313 C.3     1  UNL1        0.0212
     26 C          64.5847   82.1050   11.5866 C.3     1  UNL1        0.0311
     27 C          63.5370   81.4974   12.4717 C.ar    1  UNL1       -0.0203
     28 C          63.0427   80.1069   12.2031 C.ar    1  UNL1       -0.0042
     29 C          61.9951   79.4993   13.0882 C.ar    1  UNL1       -0.0003
     30 C          61.4418   80.2822   14.2418 C.ar    1  UNL1        0.0000
     31 C          61.9361   81.6728   14.5104 C.ar    1  UNL1        0.0012
     32 C          62.9837   82.2803   13.6253 C.ar    1  UNL1        0.0155
@<TRIPOS>BOND
     1    26    27    1
     2    27    28   ar
     3    28    29   ar
     4    29    30   ar
     5    30    31   ar
     6    31    32   ar
     7    32     1    1
     8     1     2   ar
     9     2     3   ar
    10     3     4   ar
    11     4     5   ar
    12     5     6   ar
    13     6     7   ar
    14     7    11    1
    15    11    12   ar
    16    12    13    1
    17    12    14   ar
    18    14    15   ar
    19    15    16   ar
    20    16    17   ar
    21    17    21    1
    22    21    23    1
    23    23    24    1
    24    24    25    1
    25    17    18   ar
    26    18    19   ar
    27    19    20   ar
    28     7     8   ar
    29     8     9   ar
    30     9    10   ar
    31    32    27   ar
    32    10     1   ar
    33    10     5   ar
    34    20    11   ar
    35    20    16   ar
    36    25    23    1
    37    21    22    1
@<TRIPOS>MOLECULE
*****
 32 37 0 0 0
SMALL
GASTEIGER

@<TRIPOS>ATOM
      1 C          60.8231   94.3634    1.5135 C.ar    1  UNL1        0.1025
      2 N          60.5912   95.6530    2.2435 N.ar    1  UNL1       -0.1480
      3 N          59.7714   96.7370    1.6088 N.ar    1  UNL1       -0.1464
      4 C          59.1836   96.5314    0.2441 C.ar    1  UNL1        0.1221
      5 C          59.4156   95.2417   -0.4858 C.ar    1  UNL1        0.0225
      6 C          58.8279   95.0360   -1.8504 C.ar    1  UNL1        0.0017
      7 C          59.0598   93.7464   -2.5804 C.ar    1  UNL1        0.0028
      8 C          59.8797   92.6623   -1.9457 C.ar    1  UNL1        0.0001
      9 C          60.4674   92.8679   -0.5811 C.ar    1  UNL1        0.0016
     10 C          60.2354   94.1577    0.1489 C.ar    1  UNL1        0.0209
     11 C          58.4721   93.5407   -3.9450 C.ar    1  UNL1        0.0333
     12 C          58.9603   94.3595   -5.1031 C.ar    1  UNL1       -0.0188
     13 C          60.0362   95.3840   -4.8965 C.3     1  UNL1        0.0311
     14 C          58.3725   94.1538   -6.4677 C.ar    1  UNL1       -0.0040
     15 C          57.2965   93.1293   -6.6743 C.ar    1  UNL1        0.0057
     16 C          56.8083   92.3105   -5.5162 C.ar    1  UNL1        0.0717
     17 C          55.7678   91.2348   -5.4154 C.ar    1  UNL1        0.1704
     18 N          55.7125   90.7757   -3.9885 N.ar    1  UNL1       -0.0621
     19 O          56.7188   91.5675   -3.2074 O.2     1  UNL1       -0.3522
     20 C          57.3961   92.5161   -4.1515 C.ar    1  UNL1        0.1777
     21 N          54.9297   90.7103   -6.5435 N.pl3   1  UNL1       -0.3171
     22 H          55.1484   90.9514   -7.4726 H       1  UNL1        0.1482
     23 C          53.7584   89.8185   -6.2560 C.3     1  UNL1        0.0706
     24 C          52.3357   89.4191   -6.5136 C.3     1  UNL1        0.0212
     25 C          53.1523   88.6732   -5.5004 C.3     1  UNL1        0.0212
     26 C          59.6109   92.6042    3.6196 C.3     1  UNL1        0.0311
     27 C          61.0368   92.3997    3.2013 C.ar    1  UNL1       -0.0203
     28 C          61.8565   91.3156    3.8359 C.ar    1  UNL1       -0.0042
     29 C          63.2825   91.1111    3.4176 C.ar    1  UNL1       -0.0003
     30 C          63.8886   91.9907    2.3645 C.ar    1  UNL1        0.0000
     31 C          63.0688   93.0748    1.7298 C.ar    1  UNL1        0.0012
     32 C          61.6430   93.2793    2.1482 C.ar    1  UNL1        0.0155
@<TRIPOS>BOND
     1    26    27    1
     2    27    28   ar
     3    28    29   ar
     4    29    30   ar
     5    30    31   ar
     6    31    32   ar
     7    32     1    1
     8     1     2   ar
     9     2     3   ar
    10     3     4   ar
    11     4     5   ar
    12     5     6   ar
    13     6     7   ar
    14     7    11    1
    15    11    12   ar
    16    12    13    1
    17    12    14   ar
    18    14    15   ar
    19    15    16   ar
    20    16    17   ar
    21    17    21    1
    22    21    23    1
    23    23    24    1
    24    24    25    1
    25    17    18   ar
    26    18    19   ar
    27    19    20   ar
    28     7     8   ar
    29     8     9   ar
    30     9    10   ar
    31    32    27   ar
    32    10     1   ar
    33    10     5   ar
    34    20    11   ar
    35    20    16   ar
    36    25    23    1
    37    21    22    1
