@<TRIPOS>MOLECULE
*****
 33 36 0 0 0
SMALL
GASTEIGER

@<TRIPOS>ATOM
      1 C          64.0516   90.5903   12.8276 C.ar    1  UNL1        0.0583
      2 C          64.5722   91.6636   11.9182 C.ar    1  UNL1        0.0238
      3 C          65.5867   92.6468   12.4223 C.ar    1  UNL1        0.0829
      4 N          66.0806   92.5567   13.8358 N.ar    1  UNL1       -0.2437
      5 C          65.5599   91.4834   14.7452 C.ar    1  UNL1        0.1009
      6 C          64.5454   90.5002   14.2411 C.ar    1  UNL1        0.0473
      7 C          66.1073   93.7201   11.5130 C.ar    1  UNL1        0.0365
      8 C          65.9606   95.1632   11.8950 C.ar    1  UNL1        0.1003
      9 N          66.4813   96.2364   10.9857 N.ar    1  UNL1       -0.2426
     10 C          67.1486   95.8666    9.6941 C.ar    1  UNL1        0.0946
     11 C          67.2953   94.4236    9.3121 C.ar    1  UNL1       -0.0026
     12 C          67.9626   94.0537    8.0206 C.3     1  UNL1        0.0327
     13 C          66.7747   93.3503   10.2215 C.ar    1  UNL1        0.0003
     14 C          64.0248   89.4268   15.1505 C.ar    1  UNL1        0.1124
     15 N          64.2245   87.9504   14.9766 N.ar    1  UNL1       -0.2367
     16 C          63.5361   87.2526   16.1120 C.ar    1  UNL1        0.1064
     17 C          62.9109   88.2978   16.9877 C.ar    1  UNL1        0.0575
     18 S          63.2129   89.6415   16.3934 S.2     1  UNL1       -0.0658
     19 N          63.3978   88.1568   12.1946 N.am    1  UNL1       -0.2956
     20 C          63.0371   89.6070   12.3235 C.2     1  UNL1        0.2463
     21 O          61.6619   90.0741   11.9483 O.2     1  UNL1       -0.2701
     22 H          64.3003   87.8503   12.4408 H       1  UNL1        0.1501
     23 C          62.3833   87.1736   11.6905 C.3     1  UNL1        0.1361
     24 C          63.0752   82.7581   12.2152 C.ar    1  UNL1        0.1916
     25 C          63.0148   83.3494   10.8380 C.ar    1  UNL1        0.0430
     26 C          62.7842   84.8212   10.6631 C.ar    1  UNL1        0.0198
     27 C          62.6140   85.7017   11.8654 C.ar    1  UNL1        0.0821
     28 N          62.6743   85.1105   13.2426 N.ar    1  UNL1       -0.2117
     29 C          62.9050   83.6387   13.4175 C.ar    1  UNL1        0.2598
     30 C          62.2584   80.4357   13.0452 C.3     1  UNL1        0.2527
     31 O          63.3058   81.2863   12.3901 O.3     1  UNL1       -0.4667
     32 O          62.9653   83.0475   14.7948 O.3     1  UNL1       -0.4541
     33 C          62.5240   83.8565   15.9783 C.3     1  UNL1        0.2543
@<TRIPOS>BOND
     1    30    31    1
     2    31    24    1
     3    24    25   ar
     4    25    26   ar
     5    26    27   ar
     6    27    23    1
     7    23    19    1
     8    19    20   am
     9    20    21    2
    10    20     1    1
    11     1     2   ar
    12     2     3   ar
    13     3     7    1
    14     7     8   ar
    15     8     9   ar
    16     9    10   ar
    17    10    11   ar
    18    11    12    1
    19    11    13   ar
    20     3     4   ar
    21     4     5   ar
    22     5     6   ar
    23     6    14    1
    24    14    15   ar
    25    15    16   ar
    26    16    17   ar
    27    17    18   ar
    28    27    28   ar
    29    28    29   ar
    30    29    32    1
    31    32    33    1
    32    29    24   ar
    33     6     1   ar
    34    18    14   ar
    35    13     7   ar
    36    19    22    1
@<TRIPOS>MOLECULE
*****
 33 36 0 0 0
SMALL
GASTEIGER

@<TRIPOS>ATOM
      1 C          63.9608   90.6079   12.9151 C.ar    1  UNL1        0.0583
      2 C          64.4953   91.6722   12.0032 C.ar    1  UNL1        0.0238
      3 C          65.6751   92.4974   12.4242 C.ar    1  UNL1        0.0829
      4 N          66.3203   92.2584   13.7571 N.ar    1  UNL1       -0.2437
      5 C          65.7857   91.1940   14.6690 C.ar    1  UNL1        0.1009
      6 C          64.6060   90.3688   14.2479 C.ar    1  UNL1        0.0473
      7 C          66.2096   93.5617   11.5123 C.ar    1  UNL1        0.0365
      8 C          66.0377   95.0090   11.8670 C.ar    1  UNL1        0.1003
      9 N          66.5722   96.0733   10.9552 N.ar    1  UNL1       -0.2426
     10 C          67.2787   95.6903    9.6885 C.ar    1  UNL1        0.0946
     11 C          67.4506   94.2430    9.3338 C.ar    1  UNL1       -0.0026
     12 C          68.1570   93.8600    8.0673 C.3     1  UNL1        0.0327
     13 C          66.9160   93.1787   10.2458 C.ar    1  UNL1        0.0003
     14 C          64.0714   89.3045   15.1598 C.ar    1  UNL1        0.1124
     15 N          64.2850   87.8272   15.0112 N.ar    1  UNL1       -0.2367
     16 C          63.5750   87.1403   16.1399 C.ar    1  UNL1        0.1064
     17 C          62.9225   88.1931   16.9862 C.ar    1  UNL1        0.0575
     18 S          63.2293   89.5306   16.3804 S.2     1  UNL1       -0.0658
     19 N          61.4680   90.4460   12.2010 N.am    1  UNL1       -0.2956
     20 C          62.7810   89.7826   12.4941 C.2     1  UNL1        0.2463
     21 O          62.9143   88.2941   12.3661 O.2     1  UNL1       -0.2701
     22 H          61.3805   91.4230   12.2850 H       1  UNL1        0.1501
     23 C          60.2882   89.6208   11.7800 C.3     1  UNL1        0.1361
     24 C          60.7358   86.5568    8.5149 C.ar    1  UNL1        0.1916
     25 C          60.1997   87.9207    8.1951 C.ar    1  UNL1        0.0430
     26 C          60.0506   88.9420    9.2835 C.ar    1  UNL1        0.0198
     27 C          60.4374   88.5995   10.6917 C.ar    1  UNL1        0.0821
     28 N          60.9735   87.2355   11.0114 N.ar    1  UNL1       -0.2117
     29 C          61.1226   86.2142    9.9230 C.ar    1  UNL1        0.2598
     30 C          62.2402   84.9843    7.0958 C.3     1  UNL1        0.2527
     31 O          60.8850   85.5354    7.4265 O.3     1  UNL1       -0.4667
     32 O          61.6587   84.8502   10.2429 O.3     1  UNL1       -0.4541
     33 C          62.5281   84.6498   11.4487 C.3     1  UNL1        0.2543
@<TRIPOS>BOND
     1    30    31    1
     2    31    24    1
     3    24    25   ar
     4    25    26   ar
     5    26    27   ar
     6    27    23    1
     7    23    19    1
     8    19    20   am
     9    20    21    2
    10    20     1    1
    11     1     2   ar
    12     2     3   ar
    13     3     7    1
    14     7     8   ar
    15     8     9   ar
    16     9    10   ar
    17    10    11   ar
    18    11    12    1
    19    11    13   ar
    20     3     4   ar
    21     4     5   ar
    22     5     6   ar
    23     6    14    1
    24    14    15   ar
    25    15    16   ar
    26    16    17   ar
    27    17    18   ar
    28    27    28   ar
    29    28    29   ar
    30    29    32    1
    31    32    33    1
    32    29    24   ar
    33     6     1   ar
    34    18    14   ar
    35    13     7   ar
    36    19    22    1
@<TRIPOS>MOLECULE
*****
 33 36 0 0 0
SMALL
GASTEIGER

@<TRIPOS>ATOM
      1 C          63.9264   90.4830   12.8515 C.ar    1  UNL1        0.0583
      2 C          64.4510   91.5500   11.9370 C.ar    1  UNL1        0.0238
      3 C          65.6671   92.3382   12.3241 C.ar    1  UNL1        0.0829
      4 N          66.3586   92.0594   13.6257 N.ar    1  UNL1       -0.2437
      5 C          65.8340   90.9923   14.5402 C.ar    1  UNL1        0.1009
      6 C          64.6179   90.2041   14.1531 C.ar    1  UNL1        0.0473
      7 C          66.1917   93.4052   11.4097 C.ar    1  UNL1        0.0365
      8 C          65.9476   94.8510   11.7264 C.ar    1  UNL1        0.1003
      9 N          66.4722   95.9180   10.8119 N.ar    1  UNL1       -0.2426
     10 C          67.2409   95.5393    9.5807 C.ar    1  UNL1        0.0946
     11 C          67.4850   94.0935    9.2641 C.ar    1  UNL1       -0.0026
     12 C          68.2537   93.7148    8.0330 C.3     1  UNL1        0.0327
     13 C          66.9604   93.0265   10.1786 C.ar    1  UNL1        0.0003
     14 C          64.0933   89.1370   15.0675 C.ar    1  UNL1        0.1124
     15 N          64.2742   87.6584   14.8922 N.ar    1  UNL1       -0.2367
     16 C          63.5883   86.9688   16.0341 C.ar    1  UNL1        0.1064
     17 C          62.9835   88.0214   16.9153 C.ar    1  UNL1        0.0575
     18 S          63.2956   89.3614   16.3179 S.2     1  UNL1       -0.0658
     19 N          62.8184   88.2178   12.2258 N.am    1  UNL1       -0.2956
     20 C          62.7103   89.6948   12.4644 C.2     1  UNL1        0.2463
     21 O          61.3860   90.3835   12.3160 O.2     1  UNL1       -0.2701
     22 H          63.6876   87.7658   12.3232 H       1  UNL1        0.1501
     23 C          61.6024   87.4296   11.8387 C.3     1  UNL1        0.1361
     24 C          61.2880   85.6583    7.7139 C.ar    1  UNL1        0.1916
     25 C          62.3406   85.1669    8.6630 C.ar    1  UNL1        0.0430
     26 C          62.4454   85.7574   10.0379 C.ar    1  UNL1        0.0198
     27 C          61.4976   86.8391   10.4638 C.ar    1  UNL1        0.0821
     28 N          60.4450   87.3305    9.5147 N.ar    1  UNL1       -0.2117
     29 C          60.3403   86.7400    8.1398 C.ar    1  UNL1        0.2598
     30 C          62.3762   84.4080    5.7132 C.3     1  UNL1        0.2527
     31 O          61.1833   85.0678    6.3390 O.3     1  UNL1       -0.4667
     32 O          59.2876   87.2314    7.1908 O.3     1  UNL1       -0.4541
     33 C          59.0077   88.7006    7.0765 C.3     1  UNL1        0.2543
@<TRIPOS>BOND
     1    30    31    1
     2    31    24    1
     3    24    25   ar
     4    25    26   ar
     5    26    27   ar
     6    27    23    1
     7    23    19    1
     8    19    20   am
     9    20    21    2
    10    20     1    1
    11     1     2   ar
    12     2     3   ar
    13     3     7    1
    14     7     8   ar
    15     8     9   ar
    16     9    10   ar
    17    10    11   ar
    18    11    12    1
    19    11    13   ar
    20     3     4   ar
    21     4     5   ar
    22     5     6   ar
    23     6    14    1
    24    14    15   ar
    25    15    16   ar
    26    16    17   ar
    27    17    18   ar
    28    27    28   ar
    29    28    29   ar
    30    29    32    1
    31    32    33    1
    32    29    24   ar
    33     6     1   ar
    34    18    14   ar
    35    13     7   ar
    36    19    22    1
@<TRIPOS>MOLECULE
*****
 33 36 0 0 0
SMALL
GASTEIGER

@<TRIPOS>ATOM
      1 C          64.0355   90.1364   13.0644 C.ar    1  UNL1        0.0583
      2 C          64.5792   91.1794   12.1336 C.ar    1  UNL1        0.0238
      3 C          65.5415   92.2112   12.6432 C.ar    1  UNL1        0.0829
      4 N          65.9600   92.1998   14.0835 N.ar    1  UNL1       -0.2437
      5 C          65.4163   91.1567   15.0144 C.ar    1  UNL1        0.1009
      6 C          64.4541   90.1250   14.5048 C.ar    1  UNL1        0.0473
      7 C          66.0852   93.2542   11.7124 C.ar    1  UNL1        0.0365
      8 C          65.8635   94.7088   12.0042 C.ar    1  UNL1        0.1003
      9 N          66.4072   95.7518   11.0734 N.ar    1  UNL1       -0.2426
     10 C          67.1726   95.3403    9.8507 C.ar    1  UNL1        0.0946
     11 C          67.3942   93.8858    9.5589 C.ar    1  UNL1       -0.0026
     12 C          68.1596   93.4743    8.3362 C.3     1  UNL1        0.0327
     13 C          66.8505   92.8427   10.4897 C.ar    1  UNL1        0.0003
     14 C          63.9103   89.0819   15.4356 C.ar    1  UNL1        0.1124
     15 N          64.0705   87.5979   15.2870 N.ar    1  UNL1       -0.2367
     16 C          63.3702   86.9385   16.4379 C.ar    1  UNL1        0.1064
     17 C          62.7771   88.0150   17.2979 C.ar    1  UNL1        0.0575
     18 S          63.1110   89.3397   16.6784 S.2     1  UNL1       -0.0658
     19 N          63.5038   87.6729   12.4329 N.am    1  UNL1       -0.2956
     20 C          63.0733   89.1046   12.5548 C.2     1  UNL1        0.2463
     21 O          61.6806   89.5046   12.1671 O.2     1  UNL1       -0.2701
     22 H          64.4179   87.4104   12.6874 H       1  UNL1        0.1501
     23 C          62.5416   86.6412   11.9234 C.3     1  UNL1        0.1361
     24 C          63.1606   82.2980   12.9251 C.ar    1  UNL1        0.1916
     25 C          62.7142   83.2567   13.9888 C.ar    1  UNL1        0.0430
     26 C          62.5078   84.7045   13.6549 C.ar    1  UNL1        0.0198
     27 C          62.7480   85.1934   12.2573 C.ar    1  UNL1        0.0821
     28 N          63.1944   84.2347   11.1937 N.ar    1  UNL1       -0.2117
     29 C          63.4008   82.7869   11.5276 C.ar    1  UNL1        0.2598
     30 C          62.1836   79.9552   13.4788 C.3     1  UNL1        0.2527
     31 O          63.3670   80.8502   13.2590 O.3     1  UNL1       -0.4667
     32 O          63.8472   81.8281   10.4638 O.3     1  UNL1       -0.4541
     33 C          62.9739   80.6692   10.0842 C.3     1  UNL1        0.2543
@<TRIPOS>BOND
     1    30    31    1
     2    31    24    1
     3    24    25   ar
     4    25    26   ar
     5    26    27   ar
     6    27    23    1
     7    23    19    1
     8    19    20   am
     9    20    21    2
    10    20     1    1
    11     1     2   ar
    12     2     3   ar
    13     3     7    1
    14     7     8   ar
    15     8     9   ar
    16     9    10   ar
    17    10    11   ar
    18    11    12    1
    19    11    13   ar
    20     3     4   ar
    21     4     5   ar
    22     5     6   ar
    23     6    14    1
    24    14    15   ar
    25    15    16   ar
    26    16    17   ar
    27    17    18   ar
    28    27    28   ar
    29    28    29   ar
    30    29    32    1
    31    32    33    1
    32    29    24   ar
    33     6     1   ar
    34    18    14   ar
    35    13     7   ar
    36    19    22    1
@<TRIPOS>MOLECULE
*****
 33 36 0 0 0
SMALL
GASTEIGER

@<TRIPOS>ATOM
      1 C          60.7205   88.4227    9.7960 C.ar    1  UNL1        0.0583
      2 C          60.0743   89.3661    8.8253 C.ar    1  UNL1        0.0238
      3 C          59.7399   88.9026    7.4384 C.ar    1  UNL1        0.0829
      4 N          60.0517   87.4956    7.0223 N.ar    1  UNL1       -0.2437
      5 C          60.6980   86.5522    7.9931 C.ar    1  UNL1        0.1009
      6 C          61.0324   87.0157    9.3799 C.ar    1  UNL1        0.0473
      7 C          59.0936   89.8460    6.4678 C.ar    1  UNL1        0.0365
      8 C          57.5985   89.9075    6.3639 C.ar    1  UNL1        0.1003
      9 N          56.9522   90.8509    5.3932 N.ar    1  UNL1       -0.2426
     10 C          57.8011   91.7329    4.5263 C.ar    1  UNL1        0.0946
     11 C          59.2962   91.6715    4.6302 C.ar    1  UNL1       -0.0026
     12 C          60.1451   92.5535    3.7633 C.3     1  UNL1        0.0327
     13 C          59.9425   90.7280    5.6009 C.ar    1  UNL1        0.0003
     14 C          61.6787   86.0723   10.3506 C.ar    1  UNL1        0.1124
     15 N          61.5246   86.0998   11.8424 N.ar    1  UNL1       -0.2367
     16 C          62.3432   84.9803   12.4137 C.ar    1  UNL1        0.1064
     17 C          63.0032   84.2607   11.2750 C.ar    1  UNL1        0.0575
     18 S          62.5925   84.9356   10.0000 S.2     1  UNL1       -0.0658
     19 N          62.4711   89.2312   11.5373 N.am    1  UNL1       -0.2956
     20 C          61.0549   88.8862   11.1829 C.2     1  UNL1        0.2463
     21 O          59.9733   89.0047   12.2153 O.2     1  UNL1       -0.2701
     22 H          63.1810   89.1535   10.8596 H       1  UNL1        0.1501
     23 C          62.8055   89.6947   12.9241 C.3     1  UNL1        0.1361
     24 C          66.4014   92.3102   13.6164 C.ar    1  UNL1        0.1916
     25 C          66.0828   91.2034   14.5774 C.ar    1  UNL1        0.0430
     26 C          64.8841   90.3316   14.3466 C.ar    1  UNL1        0.0198
     27 C          64.0041   90.5666   13.1548 C.ar    1  UNL1        0.0821
     28 N          64.3227   91.6733   12.1939 N.ar    1  UNL1       -0.2117
     29 C          65.5213   92.5451   12.4246 C.ar    1  UNL1        0.2598
     30 C          68.0724   93.4530   15.2448 C.3     1  UNL1        0.2527
     31 O          67.6000   93.1820   13.8471 O.3     1  UNL1       -0.4667
     32 O          65.8399   93.6519   11.4636 O.3     1  UNL1       -0.4541
     33 C          66.7294   93.3888   10.2848 C.3     1  UNL1        0.2543
@<TRIPOS>BOND
     1    30    31    1
     2    31    24    1
     3    24    25   ar
     4    25    26   ar
     5    26    27   ar
     6    27    23    1
     7    23    19    1
     8    19    20   am
     9    20    21    2
    10    20     1    1
    11     1     2   ar
    12     2     3   ar
    13     3     7    1
    14     7     8   ar
    15     8     9   ar
    16     9    10   ar
    17    10    11   ar
    18    11    12    1
    19    11    13   ar
    20     3     4   ar
    21     4     5   ar
    22     5     6   ar
    23     6    14    1
    24    14    15   ar
    25    15    16   ar
    26    16    17   ar
    27    17    18   ar
    28    27    28   ar
    29    28    29   ar
    30    29    32    1
    31    32    33    1
    32    29    24   ar
    33     6     1   ar
    34    18    14   ar
    35    13     7   ar
    36    19    22    1
@<TRIPOS>MOLECULE
*****
 33 36 0 0 0
SMALL
GASTEIGER

@<TRIPOS>ATOM
      1 C          64.0677   91.2104   12.7026 C.ar    1  UNL1        0.0583
      2 C          64.5772   92.2962   11.8019 C.ar    1  UNL1        0.0238
      3 C          65.6210   93.2531   12.2970 C.ar    1  UNL1        0.0829
      4 N          66.1551   93.1241   13.6927 N.ar    1  UNL1       -0.2437
      5 C          65.6454   92.0382   14.5934 C.ar    1  UNL1        0.1009
      6 C          64.6018   91.0814   14.0983 C.ar    1  UNL1        0.0473
      7 C          66.1306   94.3389   11.3963 C.ar    1  UNL1        0.0365
      8 C          66.0982   95.7678   11.8516 C.ar    1  UNL1        0.1003
      9 N          66.6078   96.8537   10.9509 N.ar    1  UNL1       -0.2426
     10 C          67.1498   96.5106    9.5949 C.ar    1  UNL1        0.0946
     11 C          67.1821   95.0818    9.1396 C.ar    1  UNL1       -0.0026
     12 C          67.7240   94.7387    7.7837 C.3     1  UNL1        0.0327
     13 C          66.6725   93.9959   10.0404 C.ar    1  UNL1        0.0003
     14 C          64.0921   89.9955   14.9990 C.ar    1  UNL1        0.1124
     15 N          63.2521   90.1898   16.2264 N.ar    1  UNL1       -0.2367
     16 C          62.9739   88.8390   16.8163 C.ar    1  UNL1        0.1064
     17 C          63.6420   87.8098   15.9535 C.ar    1  UNL1        0.0575
     18 S          64.3331   88.5246   14.8303 S.2     1  UNL1       -0.0658
     19 N          63.0423   89.7970   10.7788 N.am    1  UNL1       -0.2956
     20 C          63.0239   90.2535   12.2075 C.2     1  UNL1        0.2463
     21 O          61.9619   89.7531   13.1411 O.2     1  UNL1       -0.2701
     22 H          63.7393   90.1254   10.1660 H       1  UNL1        0.1501
     23 C          61.9986   88.8401   10.2837 C.3     1  UNL1        0.1361
     24 C          62.8673   84.4263   10.1660 C.ar    1  UNL1        0.1916
     25 C          62.6627   85.1156   11.4824 C.ar    1  UNL1        0.0430
     26 C          62.3732   86.5869   11.5217 C.ar    1  UNL1        0.0198
     27 C          62.2882   87.3688   10.2445 C.ar    1  UNL1        0.0821
     28 N          62.4927   86.6795    8.9281 N.ar    1  UNL1       -0.2117
     29 C          62.7823   85.2083    8.8888 C.ar    1  UNL1        0.2598
     30 C          64.1282   82.3556   11.0999 C.3     1  UNL1        0.2527
     31 O          63.1568   82.9550   10.1268 O.3     1  UNL1       -0.4667
     32 O          62.9868   84.5190    7.5723 O.3     1  UNL1       -0.4541
     33 C          61.9922   84.7061    6.4652 C.3     1  UNL1        0.2543
@<TRIPOS>BOND
     1    30    31    1
     2    31    24    1
     3    24    25   ar
     4    25    26   ar
     5    26    27   ar
     6    27    23    1
     7    23    19    1
     8    19    20   am
     9    20    21    2
    10    20     1    1
    11     1     2   ar
    12     2     3   ar
    13     3     7    1
    14     7     8   ar
    15     8     9   ar
    16     9    10   ar
    17    10    11   ar
    18    11    12    1
    19    11    13   ar
    20     3     4   ar
    21     4     5   ar
    22     5     6   ar
    23     6    14    1
    24    14    15   ar
    25    15    16   ar
    26    16    17   ar
    27    17    18   ar
    28    27    28   ar
    29    28    29   ar
    30    29    32    1
    31    32    33    1
    32    29    24   ar
    33     6     1   ar
    34    18    14   ar
    35    13     7   ar
    36    19    22    1
@<TRIPOS>MOLECULE
*****
 33 36 0 0 0
SMALL
GASTEIGER

@<TRIPOS>ATOM
      1 C          62.7050   88.7250   11.4980 C.ar    1  UNL1        0.0583
      2 C          63.5960   89.6274   12.2991 C.ar    1  UNL1        0.0238
      3 C          63.9699   90.9786   11.7655 C.ar    1  UNL1        0.0829
      4 N          63.4527   91.4274   10.4309 N.ar    1  UNL1       -0.2437
      5 C          62.5617   90.5249    9.6298 C.ar    1  UNL1        0.1009
      6 C          62.1878   89.1738   10.1634 C.ar    1  UNL1        0.0473
      7 C          64.8609   91.8810   12.5666 C.ar    1  UNL1        0.0365
      8 C          65.6066   92.9925   11.8895 C.ar    1  UNL1        0.1003
      9 N          66.4976   93.8949   12.6906 N.ar    1  UNL1       -0.2426
     10 C          66.6429   93.6858   14.1689 C.ar    1  UNL1        0.0946
     11 C          65.8972   92.5743   14.8460 C.ar    1  UNL1       -0.0026
     12 C          66.0425   92.3652   16.3242 C.3     1  UNL1        0.0327
     13 C          65.0062   91.6719   14.0448 C.ar    1  UNL1        0.0003
     14 C          61.2968   88.2713    9.3623 C.ar    1  UNL1        0.1124
     15 N          61.6597   86.9141    8.8367 N.ar    1  UNL1       -0.2367
     16 C          60.4736   86.3716    8.0958 C.ar    1  UNL1        0.1064
     17 C          59.3777   87.3936    8.1634 C.ar    1  UNL1        0.0575
     18 S          59.8865   88.5677    8.9462 S.2     1  UNL1       -0.0658
     19 N          63.3353   86.5668   12.7998 N.am    1  UNL1       -0.2956
     20 C          62.3312   87.3738   12.0315 C.2     1  UNL1        0.2463
     21 O          60.9532   86.8298   11.7967 O.2     1  UNL1       -0.2701
     22 H          64.2398   86.9239   12.9539 H       1  UNL1        0.1501
     23 C          62.9615   85.2156   13.3333 C.3     1  UNL1        0.1361
     24 C          63.4836   81.5586   10.7636 C.ar    1  UNL1        0.1916
     25 C          63.8173   82.9143   10.2153 C.ar    1  UNL1        0.0430
     26 C          63.6432   84.1333   11.0719 C.ar    1  UNL1        0.0198
     27 C          63.1356   83.9966   12.4767 C.ar    1  UNL1        0.0821
     28 N          62.8019   82.6409   13.0249 N.ar    1  UNL1       -0.2117
     29 C          62.9760   81.4219   12.1684 C.ar    1  UNL1        0.2598
     30 C          62.4816   79.4571    9.6106 C.3     1  UNL1        0.2527
     31 O          63.6577   80.3396    9.9070 O.3     1  UNL1       -0.4667
     32 O          62.6423   80.0661   12.7167 O.3     1  UNL1       -0.4541
     33 C          61.5805   79.9221   13.7663 C.3     1  UNL1        0.2543
@<TRIPOS>BOND
     1    30    31    1
     2    31    24    1
     3    24    25   ar
     4    25    26   ar
     5    26    27   ar
     6    27    23    1
     7    23    19    1
     8    19    20   am
     9    20    21    2
    10    20     1    1
    11     1     2   ar
    12     2     3   ar
    13     3     7    1
    14     7     8   ar
    15     8     9   ar
    16     9    10   ar
    17    10    11   ar
    18    11    12    1
    19    11    13   ar
    20     3     4   ar
    21     4     5   ar
    22     5     6   ar
    23     6    14    1
    24    14    15   ar
    25    15    16   ar
    26    16    17   ar
    27    17    18   ar
    28    27    28   ar
    29    28    29   ar
    30    29    32    1
    31    32    33    1
    32    29    24   ar
    33     6     1   ar
    34    18    14   ar
    35    13     7   ar
    36    19    22    1
@<TRIPOS>MOLECULE
*****
 33 36 0 0 0
SMALL
GASTEIGER

@<TRIPOS>ATOM
      1 C          63.5803   90.1374   12.4859 C.ar    1  UNL1        0.0583
      2 C          64.3545   91.4206   12.5469 C.ar    1  UNL1        0.0238
      3 C          64.4656   92.2882   11.3283 C.ar    1  UNL1        0.0829
      4 N          63.8025   91.8725   10.0487 N.ar    1  UNL1       -0.2437
      5 C          63.0282   90.5892    9.9877 C.ar    1  UNL1        0.1009
      6 C          62.9171   89.7217   11.2063 C.ar    1  UNL1        0.0473
      7 C          65.2399   93.5715   11.3893 C.ar    1  UNL1        0.0365
      8 C          65.9088   93.9838   12.6670 C.ar    1  UNL1        0.1003
      9 N          66.6831   95.2670   12.7280 N.ar    1  UNL1       -0.2426
     10 C          66.7884   96.1380   11.5113 C.ar    1  UNL1        0.0946
     11 C          66.1195   95.7258   10.2336 C.ar    1  UNL1       -0.0026
     12 C          66.2247   96.5967    9.0170 C.3     1  UNL1        0.0327
     13 C          65.3452   94.4424   10.1727 C.ar    1  UNL1        0.0003
     14 C          62.1428   88.4383   11.1453 C.ar    1  UNL1        0.1124
     15 N          62.6245   87.0951   11.6076 N.ar    1  UNL1       -0.2367
     16 C          61.5303   86.0996   11.3593 C.ar    1  UNL1        0.1064
     17 C          60.3723   86.8276   10.7435 C.ar    1  UNL1        0.0575
     18 S          60.7508   88.2730   10.6113 S.2     1  UNL1       -0.0658
     19 N          64.2766   88.0095   13.8040 N.am    1  UNL1       -0.2956
     20 C          63.4692   89.2697   13.7045 C.2     1  UNL1        0.2463
     21 O          62.5507   89.6623   14.8235 O.2     1  UNL1       -0.2701
     22 H          64.8794   87.7518   13.0696 H       1  UNL1        0.1501
     23 C          64.1655   87.1419   15.0226 C.3     1  UNL1        0.1361
     24 C          63.0316   82.8074   14.6027 C.ar    1  UNL1        0.1916
     25 C          62.4645   83.6257   15.7246 C.ar    1  UNL1        0.0430
     26 C          62.8425   85.0706   15.8646 C.ar    1  UNL1        0.0198
     27 C          63.7875   85.6971   14.8826 C.ar    1  UNL1        0.0821
     28 N          64.3546   84.8788   13.7607 N.ar    1  UNL1       -0.2117
     29 C          63.9766   83.4339   13.6207 C.ar    1  UNL1        0.2598
     30 C          61.2691   80.9887   14.0230 C.3     1  UNL1        0.2527
     31 O          62.6536   81.3626   14.4627 O.3     1  UNL1       -0.4667
     32 O          64.5437   82.6156   12.4987 O.3     1  UNL1       -0.4541
     33 C          63.6973   82.2936   11.3030 C.3     1  UNL1        0.2543
@<TRIPOS>BOND
     1    30    31    1
     2    31    24    1
     3    24    25   ar
     4    25    26   ar
     5    26    27   ar
     6    27    23    1
     7    23    19    1
     8    19    20   am
     9    20    21    2
    10    20     1    1
    11     1     2   ar
    12     2     3   ar
    13     3     7    1
    14     7     8   ar
    15     8     9   ar
    16     9    10   ar
    17    10    11   ar
    18    11    12    1
    19    11    13   ar
    20     3     4   ar
    21     4     5   ar
    22     5     6   ar
    23     6    14    1
    24    14    15   ar
    25    15    16   ar
    26    16    17   ar
    27    17    18   ar
    28    27    28   ar
    29    28    29   ar
    30    29    32    1
    31    32    33    1
    32    29    24   ar
    33     6     1   ar
    34    18    14   ar
    35    13     7   ar
    36    19    22    1
@<TRIPOS>MOLECULE
*****
 33 36 0 0 0
SMALL
GASTEIGER

@<TRIPOS>ATOM
      1 C          64.1962   89.6033   14.1412 C.ar    1  UNL1        0.0583
      2 C          65.2803   90.4410   14.7516 C.ar    1  UNL1        0.0238
      3 C          65.7977   91.6456   14.0226 C.ar    1  UNL1        0.0829
      4 N          65.2309   92.0124   12.6832 N.ar    1  UNL1       -0.2437
      5 C          64.1466   91.1746   12.0727 C.ar    1  UNL1        0.1009
      6 C          63.6293   89.9701   12.8017 C.ar    1  UNL1        0.0473
      7 C          66.8819   92.4833   14.6331 C.ar    1  UNL1        0.0365
      8 C          66.9201   93.9613   14.3799 C.ar    1  UNL1        0.1003
      9 N          68.0043   94.7990   14.9904 N.ar    1  UNL1       -0.2426
     10 C          69.0504   94.1588   15.8541 C.ar    1  UNL1        0.0946
     11 C          69.0122   92.6808   16.1073 C.ar    1  UNL1       -0.0026
     12 C          70.0581   92.0405   16.9709 C.3     1  UNL1        0.0327
     13 C          67.9279   91.8430   15.4968 C.ar    1  UNL1        0.0003
     14 C          62.5450   89.1323   12.1913 C.ar    1  UNL1        0.1124
     15 N          62.6464   87.6771   11.8418 N.ar    1  UNL1       -0.2367
     16 C          61.3331   87.2481   11.2577 C.ar    1  UNL1        0.1064
     17 C          60.4200   88.4382   11.2461 C.ar    1  UNL1        0.0575
     18 S          61.1691   89.6026   11.8231 S.2     1  UNL1       -0.0658
     19 N          64.2208   87.0375   14.5488 N.am    1  UNL1       -0.2956
     20 C          63.6788   88.3987   14.8702 C.2     1  UNL1        0.2463
     21 O          62.6194   88.5554   15.9205 O.2     1  UNL1       -0.2701
     22 H          64.9161   86.9346   13.8594 H       1  UNL1        0.1501
     23 C          63.7035   85.8329   15.2777 C.3     1  UNL1        0.1361
     24 C          63.0763   81.9633   13.0681 C.ar    1  UNL1        0.1916
     25 C          62.3516   82.2171   14.3567 C.ar    1  UNL1        0.0430
     26 C          62.5607   83.5070   15.0932 C.ar    1  UNL1        0.0198
     27 C          63.4944   84.5430   14.5412 C.ar    1  UNL1        0.0821
     28 N          64.2190   84.2892   13.2527 N.ar    1  UNL1       -0.2117
     29 C          64.0100   82.9993   12.5161 C.ar    1  UNL1        0.2598
     30 C          62.3232   79.4768   13.0542 C.3     1  UNL1        0.2527
     31 O          62.8672   80.6734   12.3316 O.3     1  UNL1       -0.4667
     32 O          64.7347   82.7455   11.2275 O.3     1  UNL1       -0.4541
     33 C          64.1048   83.1357    9.9233 C.3     1  UNL1        0.2543
@<TRIPOS>BOND
     1    30    31    1
     2    31    24    1
     3    24    25   ar
     4    25    26   ar
     5    26    27   ar
     6    27    23    1
     7    23    19    1
     8    19    20   am
     9    20    21    2
    10    20     1    1
    11     1     2   ar
    12     2     3   ar
    13     3     7    1
    14     7     8   ar
    15     8     9   ar
    16     9    10   ar
    17    10    11   ar
    18    11    12    1
    19    11    13   ar
    20     3     4   ar
    21     4     5   ar
    22     5     6   ar
    23     6    14    1
    24    14    15   ar
    25    15    16   ar
    26    16    17   ar
    27    17    18   ar
    28    27    28   ar
    29    28    29   ar
    30    29    32    1
    31    32    33    1
    32    29    24   ar
    33     6     1   ar
    34    18    14   ar
    35    13     7   ar
    36    19    22    1
