@<TRIPOS>MOLECULE
*****
 27 29 0 0 0
SMALL
GASTEIGER

@<TRIPOS>ATOM
      1 C          63.3063   89.4980   16.2017 C.3     1  UNL1        0.0521
      2 C          63.6287   90.1290   14.8795 C.ar    1  UNL1        0.0606
      3 C          62.7551   89.8639   13.6892 C.ar    1  UNL1        0.0290
      4 C          63.0774   90.4948   12.3671 C.ar    1  UNL1        0.0475
      5 C          64.2733   91.3908   12.2352 C.ar    1  UNL1        0.0309
      6 C          64.5955   92.0216   10.9131 C.ar    1  UNL1        0.0027
      7 C          65.7913   92.9175   10.7812 C.ar    1  UNL1        0.0003
      8 C          66.6649   93.1825   11.9715 C.ar    1  UNL1        0.0060
      9 C          66.3426   92.5516   13.2936 C.ar    1  UNL1        0.0708
     10 C          65.1468   91.6558   13.4255 C.ar    1  UNL1        0.0864
     11 N          64.8244   91.0248   14.7477 N.ar    1  UNL1       -0.2494
     12 C          67.2161   92.8167   14.4839 C.2     1  UNL1        0.2442
     13 N          66.5971   93.0858   15.8234 N.am    1  UNL1       -0.3253
     14 O          68.7086   92.8125   14.3346 O.2     1  UNL1       -0.2703
     15 H          65.6175   93.0885   15.9214 H       1  UNL1        0.1453
     16 H          67.1704   93.2597   16.6046 H       1  UNL1        0.1453
     17 N          62.2039   90.2298   11.1768 N.pl3   1  UNL1       -0.3289
     18 H          62.2845   90.7914   10.3723 H       1  UNL1        0.1471
     19 C          61.2076   89.1091   11.2124 C.3     1  UNL1        0.1160
     20 C          61.3600   87.9403   10.2847 C.ar    1  UNL1        0.0185
     21 C          60.6745   87.9474    8.9504 C.ar    1  UNL1        0.0561
     22 CL         59.8366   89.1232    8.5440 Cl      1  UNL1       -0.0825
     23 C          60.8270   86.7786    8.0227 C.ar    1  UNL1        0.0112
     24 C          61.6649   85.6027    8.4292 C.ar    1  UNL1        0.0017
     25 C          62.3504   85.5957    9.7634 C.ar    1  UNL1        0.0112
     26 C          62.1979   86.7645   10.6911 C.ar    1  UNL1        0.0561
     27 CL         62.8835   86.7574   12.0253 Cl      1  UNL1       -0.0825
@<TRIPOS>BOND
     1     1     2    1
     2     2     3   ar
     3     3     4   ar
     4     4    17    1
     5    17    19    1
     6    19    20    1
     7    20    21   ar
     8    21    22    1
     9    21    23   ar
    10    23    24   ar
    11    24    25   ar
    12    25    26   ar
    13    26    27    1
    14     4     5   ar
    15     5     6   ar
    16     6     7   ar
    17     7     8   ar
    18     8     9   ar
    19     9    12    1
    20    12    13   am
    21    12    14    2
    22     9    10   ar
    23    10    11   ar
    24    11     2   ar
    25    26    20   ar
    26    10     5   ar
    27    17    18    1
    28    13    15    1
    29    13    16    1
@<TRIPOS>MOLECULE
*****
 27 29 0 0 0
SMALL
GASTEIGER

@<TRIPOS>ATOM
      1 C          63.2782   89.4928   16.1815 C.3     1  UNL1        0.0521
      2 C          63.6139   90.1254   14.8634 C.ar    1  UNL1        0.0606
      3 C          62.7581   89.8539   13.6617 C.ar    1  UNL1        0.0290
      4 C          63.0937   90.4864   12.3437 C.ar    1  UNL1        0.0475
      5 C          64.2851   91.3905   12.2273 C.ar    1  UNL1        0.0309
      6 C          64.6206   92.0230   10.9092 C.ar    1  UNL1        0.0027
      7 C          65.8119   92.9270   10.7929 C.ar    1  UNL1        0.0003
      8 C          66.6676   93.1984   11.9945 C.ar    1  UNL1        0.0060
      9 C          66.3321   92.5659   13.3126 C.ar    1  UNL1        0.0708
     10 C          65.1408   91.6619   13.4289 C.ar    1  UNL1        0.0864
     11 N          64.8052   91.0294   14.7470 N.ar    1  UNL1       -0.2494
     12 C          67.1878   92.8374   14.5143 C.2     1  UNL1        0.2442
     13 N          66.5488   93.1447   15.8361 N.am    1  UNL1       -0.3253
     14 O          68.6825   92.8016   14.3941 O.2     1  UNL1       -0.2703
     15 H          65.5678   93.1682   15.9149 H       1  UNL1        0.1453
     16 H          67.1105   93.3229   16.6248 H       1  UNL1        0.1453
     17 N          62.2380   90.2150   11.1420 N.pl3   1  UNL1       -0.3289
     18 H          62.3502   90.7540   10.3259 H       1  UNL1        0.1471
     19 C          61.2114   89.1222   11.1838 C.3     1  UNL1        0.1160
     20 C          61.3122   87.9618   10.2385 C.ar    1  UNL1        0.0185
     21 C          62.1208   86.7558   10.6151 C.ar    1  UNL1        0.0561
     22 CL         62.8285   86.7102   11.9368 Cl      1  UNL1       -0.0825
     23 C          62.2217   85.5955    9.6699 C.ar    1  UNL1        0.0112
     24 C          61.5139   85.6412    8.3481 C.ar    1  UNL1        0.0017
     25 C          60.7054   86.8472    7.9716 C.ar    1  UNL1        0.0112
     26 C          60.6045   88.0075    8.9168 C.ar    1  UNL1        0.0561
     27 CL         59.7959   89.2135    8.5402 Cl      1  UNL1       -0.0825
@<TRIPOS>BOND
     1     1     2    1
     2     2     3   ar
     3     3     4   ar
     4     4    17    1
     5    17    19    1
     6    19    20    1
     7    20    21   ar
     8    21    22    1
     9    21    23   ar
    10    23    24   ar
    11    24    25   ar
    12    25    26   ar
    13    26    27    1
    14     4     5   ar
    15     5     6   ar
    16     6     7   ar
    17     7     8   ar
    18     8     9   ar
    19     9    12    1
    20    12    13   am
    21    12    14    2
    22     9    10   ar
    23    10    11   ar
    24    11     2   ar
    25    26    20   ar
    26    10     5   ar
    27    17    18    1
    28    13    15    1
    29    13    16    1
@<TRIPOS>MOLECULE
*****
 27 29 0 0 0
SMALL
GASTEIGER

@<TRIPOS>ATOM
      1 C          61.1206   86.3585    9.2646 C.3     1  UNL1        0.0521
      2 C          61.8971   86.2452   10.5430 C.ar    1  UNL1        0.0606
      3 C          62.3693   87.4832   11.2459 C.ar    1  UNL1        0.0290
      4 C          63.1458   87.3699   12.5243 C.ar    1  UNL1        0.0475
      5 C          63.4500   86.0185   13.0998 C.ar    1  UNL1        0.0309
      6 C          64.2264   85.9052   14.3781 C.ar    1  UNL1        0.0027
      7 C          64.5306   84.5538   14.9536 C.ar    1  UNL1        0.0003
      8 C          64.0583   83.3157   14.2506 C.ar    1  UNL1        0.0060
      9 C          63.2818   83.4290   12.9723 C.ar    1  UNL1        0.0708
     10 C          62.9777   84.7804   12.3968 C.ar    1  UNL1        0.0864
     11 N          62.2012   84.8938   11.1184 N.ar    1  UNL1       -0.2494
     12 C          62.8095   82.1909   12.2694 C.2     1  UNL1        0.2442
     13 N          63.3130   81.8717   10.8929 N.am    1  UNL1       -0.3253
     14 O          61.8338   81.2721   12.9429 O.2     1  UNL1       -0.2703
     15 H          63.9534   82.4747   10.4509 H       1  UNL1        0.1453
     16 H          63.0030   81.0591   10.4316 H       1  UNL1        0.1453
     17 N          63.6181   88.6080   13.2272 N.pl3   1  UNL1       -0.3289
     18 H          64.2606   88.5377   13.9698 H       1  UNL1        0.1471
     19 C          63.1115   89.9532   12.7987 C.3     1  UNL1        0.1160
     20 C          64.0803   91.0319   12.4142 C.ar    1  UNL1        0.0185
     21 C          65.0837   91.5293   13.4122 C.ar    1  UNL1        0.0561
     22 CL         65.1182   90.9480   14.7945 Cl      1  UNL1       -0.0825
     23 C          66.0525   92.6080   13.0277 C.ar    1  UNL1        0.0112
     24 C          66.0180   93.1893   11.6453 C.ar    1  UNL1        0.0017
     25 C          65.0146   92.6919   10.6474 C.ar    1  UNL1        0.0112
     26 C          64.0458   91.6132   11.0319 C.ar    1  UNL1        0.0561
     27 CL         63.0424   91.1158   10.0339 Cl      1  UNL1       -0.0825
@<TRIPOS>BOND
     1     1     2    1
     2     2     3   ar
     3     3     4   ar
     4     4    17    1
     5    17    19    1
     6    19    20    1
     7    20    21   ar
     8    21    22    1
     9    21    23   ar
    10    23    24   ar
    11    24    25   ar
    12    25    26   ar
    13    26    27    1
    14     4     5   ar
    15     5     6   ar
    16     6     7   ar
    17     7     8   ar
    18     8     9   ar
    19     9    12    1
    20    12    13   am
    21    12    14    2
    22     9    10   ar
    23    10    11   ar
    24    11     2   ar
    25    26    20   ar
    26    10     5   ar
    27    17    18    1
    28    13    15    1
    29    13    16    1
@<TRIPOS>MOLECULE
*****
 27 29 0 0 0
SMALL
GASTEIGER

@<TRIPOS>ATOM
      1 C          61.1524   86.3819    9.2344 C.3     1  UNL1        0.0521
      2 C          61.9121   86.2639   10.5225 C.ar    1  UNL1        0.0606
      3 C          62.3733   87.4995   11.2371 C.ar    1  UNL1        0.0290
      4 C          63.1330   87.3815   12.5250 C.ar    1  UNL1        0.0475
      5 C          63.4315   86.0279   13.0985 C.ar    1  UNL1        0.0309
      6 C          64.1912   85.9100   14.3865 C.ar    1  UNL1        0.0027
      7 C          64.4897   84.5565   14.9599 C.ar    1  UNL1        0.0003
      8 C          64.0285   83.3209   14.2453 C.ar    1  UNL1        0.0060
      9 C          63.2688   83.4388   12.9573 C.ar    1  UNL1        0.0708
     10 C          62.9703   84.7924   12.3839 C.ar    1  UNL1        0.0864
     11 N          62.2106   84.9104   11.0959 N.ar    1  UNL1       -0.2494
     12 C          62.8076   82.2033   12.2427 C.2     1  UNL1        0.2442
     13 N          63.3220   81.8960   10.8677 N.am    1  UNL1       -0.3253
     14 O          61.8319   81.2750   12.9032 O.2     1  UNL1       -0.2703
     15 H          63.9624   82.5052   10.4341 H       1  UNL1        0.1453
     16 H          63.0193   81.0850   10.3987 H       1  UNL1        0.1453
     17 N          63.5942   88.6171   13.2396 N.pl3   1  UNL1       -0.3289
     18 H          64.2262   88.5443   13.9910 H       1  UNL1        0.1471
     19 C          63.0925   89.9637   12.8094 C.3     1  UNL1        0.1160
     20 C          64.0656   91.0410   12.4319 C.ar    1  UNL1        0.0185
     21 C          64.0618   91.6010   11.0403 C.ar    1  UNL1        0.0561
     22 CL         63.0851   91.0836   10.0263 Cl      1  UNL1       -0.0825
     23 C          65.0348   92.6783   10.6627 C.ar    1  UNL1        0.0112
     24 C          66.0116   93.1957   11.6768 C.ar    1  UNL1        0.0017
     25 C          66.0153   92.6358   13.0683 C.ar    1  UNL1        0.0112
     26 C          65.0423   91.5584   13.4459 C.ar    1  UNL1        0.0561
     27 CL         65.0461   90.9985   14.8375 Cl      1  UNL1       -0.0825
@<TRIPOS>BOND
     1     1     2    1
     2     2     3   ar
     3     3     4   ar
     4     4    17    1
     5    17    19    1
     6    19    20    1
     7    20    21   ar
     8    21    22    1
     9    21    23   ar
    10    23    24   ar
    11    24    25   ar
    12    25    26   ar
    13    26    27    1
    14     4     5   ar
    15     5     6   ar
    16     6     7   ar
    17     7     8   ar
    18     8     9   ar
    19     9    12    1
    20    12    13   am
    21    12    14    2
    22     9    10   ar
    23    10    11   ar
    24    11     2   ar
    25    26    20   ar
    26    10     5   ar
    27    17    18    1
    28    13    15    1
    29    13    16    1
@<TRIPOS>MOLECULE
*****
 27 29 0 0 0
SMALL
GASTEIGER

@<TRIPOS>ATOM
      1 C          61.2893   86.4016    9.2647 C.3     1  UNL1        0.0521
      2 C          62.0191   86.9163   10.4700 C.ar    1  UNL1        0.0606
      3 C          62.3948   85.9767   11.5772 C.ar    1  UNL1        0.0290
      4 C          63.1245   86.4914   12.7824 C.ar    1  UNL1        0.0475
      5 C          63.4786   87.9457   12.8805 C.ar    1  UNL1        0.0309
      6 C          64.2083   88.4604   14.0857 C.ar    1  UNL1        0.0027
      7 C          64.5624   89.9147   14.1836 C.ar    1  UNL1        0.0003
      8 C          64.1867   90.8543   13.0764 C.ar    1  UNL1        0.0060
      9 C          63.4570   90.3396   11.8712 C.ar    1  UNL1        0.0708
     10 C          63.1029   88.8854   11.7732 C.ar    1  UNL1        0.0864
     11 N          62.3731   88.3706   10.5680 N.ar    1  UNL1       -0.2494
     12 C          63.0813   91.2793   10.7640 C.2     1  UNL1        0.2442
     13 N          61.7458   91.1520   10.0930 N.am    1  UNL1       -0.3253
     14 O          64.0411   92.3462   10.3277 O.2     1  UNL1       -0.2703
     15 H          61.1158   90.4517   10.3793 H       1  UNL1        0.1453
     16 H          61.4992   91.7687    9.3663 H       1  UNL1        0.1453
     17 N          63.5002   85.5517   13.8897 N.pl3   1  UNL1       -0.3289
     18 H          63.2487   85.7599   14.8185 H       1  UNL1        0.1471
     19 C          64.2590   84.2950   13.5818 C.3     1  UNL1        0.1160
     20 C          63.5229   83.0020   13.3914 C.ar    1  UNL1        0.0185
     21 C          62.5800   82.5128   14.4504 C.ar    1  UNL1        0.0561
     22 CL         62.3731   83.3166   15.6998 Cl      1  UNL1       -0.0825
     23 C          61.8439   81.2198   14.2600 C.ar    1  UNL1        0.0112
     24 C          62.0508   80.4160   13.0105 C.ar    1  UNL1        0.0017
     25 C          62.9937   80.9052   11.9515 C.ar    1  UNL1        0.0112
     26 C          63.7298   82.1982   12.1419 C.ar    1  UNL1        0.0561
     27 CL         64.6728   82.6874   11.0829 Cl      1  UNL1       -0.0825
@<TRIPOS>BOND
     1     1     2    1
     2     2     3   ar
     3     3     4   ar
     4     4    17    1
     5    17    19    1
     6    19    20    1
     7    20    21   ar
     8    21    22    1
     9    21    23   ar
    10    23    24   ar
    11    24    25   ar
    12    25    26   ar
    13    26    27    1
    14     4     5   ar
    15     5     6   ar
    16     6     7   ar
    17     7     8   ar
    18     8     9   ar
    19     9    12    1
    20    12    13   am
    21    12    14    2
    22     9    10   ar
    23    10    11   ar
    24    11     2   ar
    25    26    20   ar
    26    10     5   ar
    27    17    18    1
    28    13    15    1
    29    13    16    1
@<TRIPOS>MOLECULE
*****
 27 29 0 0 0
SMALL
GASTEIGER

@<TRIPOS>ATOM
      1 C          63.5150   89.9795   16.4522 C.3     1  UNL1        0.0521
      2 C          63.6894   90.3919   15.0205 C.ar    1  UNL1        0.0606
      3 C          64.8789   91.2111   14.6155 C.ar    1  UNL1        0.0290
      4 C          65.0532   91.6235   13.1840 C.ar    1  UNL1        0.0475
      5 C          64.0381   91.2167   12.1572 C.ar    1  UNL1        0.0309
      6 C          64.2125   91.6291   10.7257 C.ar    1  UNL1        0.0027
      7 C          63.1974   91.2223    9.6990 C.ar    1  UNL1        0.0003
      8 C          62.0079   90.4031   10.1040 C.ar    1  UNL1        0.0060
      9 C          61.8335   89.9907   11.5356 C.ar    1  UNL1        0.0708
     10 C          62.8486   90.3975   12.5622 C.ar    1  UNL1        0.0864
     11 N          62.6742   89.9851   13.9939 N.ar    1  UNL1       -0.2494
     12 C          60.6440   89.1715   11.9405 C.2     1  UNL1        0.2442
     13 N          59.5385   89.7976   12.7378 N.am    1  UNL1       -0.3253
     14 O          60.5600   87.7262   11.5481 O.2     1  UNL1       -0.2703
     15 H          59.5936   90.7462   12.9954 H       1  UNL1        0.1453
     16 H          58.7578   89.2599   13.0036 H       1  UNL1        0.1453
     17 N          66.2427   92.4427   12.7790 N.pl3   1  UNL1       -0.3289
     18 H          67.1332   92.0259   12.7279 H       1  UNL1        0.1471
     19 C          66.0756   93.8970   12.4519 C.3     1  UNL1        0.1160
     20 C          66.5938   94.4379   11.1523 C.ar    1  UNL1        0.0185
     21 C          66.3932   95.8842   10.8086 C.ar    1  UNL1        0.0561
     22 CL         65.6744   96.7895   11.7644 Cl      1  UNL1       -0.0825
     23 C          66.9114   96.4250    9.5090 C.ar    1  UNL1        0.0112
     24 C          67.6302   95.5196    8.5531 C.ar    1  UNL1        0.0017
     25 C          67.8308   94.0734    8.8969 C.ar    1  UNL1        0.0112
     26 C          67.3126   93.5325   10.1965 C.ar    1  UNL1        0.0561
     27 CL         67.5132   92.0862   10.5403 Cl      1  UNL1       -0.0825
@<TRIPOS>BOND
     1     1     2    1
     2     2     3   ar
     3     3     4   ar
     4     4    17    1
     5    17    19    1
     6    19    20    1
     7    20    21   ar
     8    21    22    1
     9    21    23   ar
    10    23    24   ar
    11    24    25   ar
    12    25    26   ar
    13    26    27    1
    14     4     5   ar
    15     5     6   ar
    16     6     7   ar
    17     7     8   ar
    18     8     9   ar
    19     9    12    1
    20    12    13   am
    21    12    14    2
    22     9    10   ar
    23    10    11   ar
    24    11     2   ar
    25    26    20   ar
    26    10     5   ar
    27    17    18    1
    28    13    15    1
    29    13    16    1
@<TRIPOS>MOLECULE
*****
 27 29 0 0 0
SMALL
GASTEIGER

@<TRIPOS>ATOM
      1 C          63.5181   89.9357   16.4461 C.3     1  UNL1        0.0521
      2 C          63.6795   90.3580   15.0157 C.ar    1  UNL1        0.0606
      3 C          64.8605   91.1877   14.6075 C.ar    1  UNL1        0.0290
      4 C          65.0220   91.6100   13.1773 C.ar    1  UNL1        0.0475
      5 C          64.0024   91.2025   12.1552 C.ar    1  UNL1        0.0309
      6 C          64.1638   91.6248   10.7250 C.ar    1  UNL1        0.0027
      7 C          63.1443   91.2174    9.7031 C.ar    1  UNL1        0.0003
      8 C          61.9632   90.3876   10.1114 C.ar    1  UNL1        0.0060
      9 C          61.8018   89.9654   11.5416 C.ar    1  UNL1        0.0708
     10 C          62.8213   90.3728   12.5635 C.ar    1  UNL1        0.0864
     11 N          62.6599   89.9505   13.9938 N.ar    1  UNL1       -0.2494
     12 C          60.6207   89.1356   11.9498 C.2     1  UNL1        0.2442
     13 N          59.5267   89.7437   12.7764 N.am    1  UNL1       -0.3253
     14 O          60.5337   87.6978   11.5315 O.2     1  UNL1       -0.2703
     15 H          59.5838   90.6875   13.0510 H       1  UNL1        0.1453
     16 H          58.7515   89.1992   13.0444 H       1  UNL1        0.1453
     17 N          66.2030   92.4397   12.7690 N.pl3   1  UNL1       -0.3289
     18 H          67.0993   92.0342   12.7289 H       1  UNL1        0.1471
     19 C          66.0186   93.8872   12.4217 C.3     1  UNL1        0.1160
     20 C          66.5611   94.4237   11.1302 C.ar    1  UNL1        0.0185
     21 C          67.2980   93.5152   10.1913 C.ar    1  UNL1        0.0561
     22 CL         67.4925   92.0702   10.5438 Cl      1  UNL1       -0.0825
     23 C          67.8405   94.0516    8.8998 C.ar    1  UNL1        0.0112
     24 C          67.6459   95.4967    8.5473 C.ar    1  UNL1        0.0017
     25 C          66.9090   96.4051    9.4862 C.ar    1  UNL1        0.0112
     26 C          66.3666   95.8686   10.7777 C.ar    1  UNL1        0.0561
     27 CL         65.6296   96.7771   11.7167 Cl      1  UNL1       -0.0825
@<TRIPOS>BOND
     1     1     2    1
     2     2     3   ar
     3     3     4   ar
     4     4    17    1
     5    17    19    1
     6    19    20    1
     7    20    21   ar
     8    21    22    1
     9    21    23   ar
    10    23    24   ar
    11    24    25   ar
    12    25    26   ar
    13    26    27    1
    14     4     5   ar
    15     5     6   ar
    16     6     7   ar
    17     7     8   ar
    18     8     9   ar
    19     9    12    1
    20    12    13   am
    21    12    14    2
    22     9    10   ar
    23    10    11   ar
    24    11     2   ar
    25    26    20   ar
    26    10     5   ar
    27    17    18    1
    28    13    15    1
    29    13    16    1
@<TRIPOS>MOLECULE
*****
 27 29 0 0 0
SMALL
GASTEIGER

@<TRIPOS>ATOM
      1 C          61.0782   89.6564    9.3830 C.3     1  UNL1        0.0521
      2 C          61.7639   88.8334   10.4330 C.ar    1  UNL1        0.0606
      3 C          61.7261   87.3359   10.3553 C.ar    1  UNL1        0.0290
      4 C          62.4118   86.5128   11.4052 C.ar    1  UNL1        0.0475
      5 C          63.1353   87.1873   12.5329 C.ar    1  UNL1        0.0309
      6 C          63.8210   86.3642   13.5828 C.ar    1  UNL1        0.0027
      7 C          64.5446   87.0387   14.7104 C.ar    1  UNL1        0.0003
      8 C          64.5824   88.5362   14.7881 C.ar    1  UNL1        0.0060
      9 C          63.8967   89.3592   13.7382 C.ar    1  UNL1        0.0708
     10 C          63.1732   88.6848   12.6106 C.ar    1  UNL1        0.0864
     11 N          62.4875   89.5078   11.5606 N.ar    1  UNL1       -0.2494
     12 C          63.9346   90.8567   13.8159 C.2     1  UNL1        0.2442
     13 N          64.3305   91.6604   12.6128 N.am    1  UNL1       -0.3253
     14 O          63.5765   91.5506   15.0966 O.2     1  UNL1       -0.2703
     15 H          64.5655   91.2050   11.7722 H       1  UNL1        0.1453
     16 H          64.3553   92.6432   12.6639 H       1  UNL1        0.1453
     17 N          62.3739   85.0153   11.3275 N.pl3   1  UNL1       -0.3289
     18 H          61.7382   84.5697   10.7220 H       1  UNL1        0.1471
     19 C          63.3045   84.1967   12.1723 C.3     1  UNL1        0.1160
     20 C          62.9210   82.8042   12.5772 C.ar    1  UNL1        0.0185
     21 C          63.1404   81.6609   11.6313 C.ar    1  UNL1        0.0561
     22 CL         63.7433   81.9100   10.2806 Cl      1  UNL1       -0.0825
     23 C          62.7568   80.2684   12.0362 C.ar    1  UNL1        0.0112
     24 C          62.1539   80.0193   13.3869 C.ar    1  UNL1        0.0017
     25 C          61.9345   81.1626   14.3328 C.ar    1  UNL1        0.0112
     26 C          62.3181   82.5551   13.9279 C.ar    1  UNL1        0.0561
     27 CL         62.0987   83.6985   14.8738 Cl      1  UNL1       -0.0825
@<TRIPOS>BOND
     1     1     2    1
     2     2     3   ar
     3     3     4   ar
     4     4    17    1
     5    17    19    1
     6    19    20    1
     7    20    21   ar
     8    21    22    1
     9    21    23   ar
    10    23    24   ar
    11    24    25   ar
    12    25    26   ar
    13    26    27    1
    14     4     5   ar
    15     5     6   ar
    16     6     7   ar
    17     7     8   ar
    18     8     9   ar
    19     9    12    1
    20    12    13   am
    21    12    14    2
    22     9    10   ar
    23    10    11   ar
    24    11     2   ar
    25    26    20   ar
    26    10     5   ar
    27    17    18    1
    28    13    15    1
    29    13    16    1
@<TRIPOS>MOLECULE
*****
 27 29 0 0 0
SMALL
GASTEIGER

@<TRIPOS>ATOM
      1 C          64.6221   86.1740   15.0266 C.3     1  UNL1        0.0521
      2 C          64.0854   87.2396   14.1175 C.ar    1  UNL1        0.0606
      3 C          64.1943   88.6837   14.5083 C.ar    1  UNL1        0.0290
      4 C          63.6576   89.7492   13.5993 C.ar    1  UNL1        0.0475
      5 C          63.0118   89.3707   12.2993 C.ar    1  UNL1        0.0309
      6 C          62.4751   90.4363   11.3902 C.ar    1  UNL1        0.0027
      7 C          61.8294   90.0578   10.0904 C.ar    1  UNL1        0.0003
      8 C          61.7204   88.6137    9.6996 C.ar    1  UNL1        0.0060
      9 C          62.2571   87.5481   10.6086 C.ar    1  UNL1        0.0708
     10 C          62.9028   87.9266   11.9085 C.ar    1  UNL1        0.0864
     11 N          63.4396   86.8610   12.8176 N.ar    1  UNL1       -0.2494
     12 C          62.1481   86.1040   10.2178 C.2     1  UNL1        0.2442
     13 N          61.8034   85.0717   11.2499 N.am    1  UNL1       -0.3253
     14 O          62.3839   85.6923    8.7949 O.2     1  UNL1       -0.2703
     15 H          61.6487   85.3419   12.1839 H       1  UNL1        0.1453
     16 H          61.7319   84.1239   10.9934 H       1  UNL1        0.1453
     17 N          63.7666   91.1933   13.9901 N.pl3   1  UNL1       -0.3289
     18 H          63.1122   91.5856   14.6122 H       1  UNL1        0.1471
     19 C          64.8726   92.0397   13.4330 C.3     1  UNL1        0.1160
     20 C          66.1618   92.1803   14.1867 C.ar    1  UNL1        0.0185
     21 C          67.4677   92.1628   13.4488 C.ar    1  UNL1        0.0561
     22 CL         67.4843   92.0046   11.9573 Cl      1  UNL1       -0.0825
     23 C          68.7569   92.3034   14.2026 C.ar    1  UNL1        0.0112
     24 C          68.7402   92.4616   15.6942 C.ar    1  UNL1        0.0017
     25 C          67.4344   92.4791   16.4319 C.ar    1  UNL1        0.0112
     26 C          66.1451   92.3385   15.6782 C.ar    1  UNL1        0.0561
     27 CL         64.8392   92.3560   16.4161 Cl      1  UNL1       -0.0825
@<TRIPOS>BOND
     1     1     2    1
     2     2     3   ar
     3     3     4   ar
     4     4    17    1
     5    17    19    1
     6    19    20    1
     7    20    21   ar
     8    21    22    1
     9    21    23   ar
    10    23    24   ar
    11    24    25   ar
    12    25    26   ar
    13    26    27    1
    14     4     5   ar
    15     5     6   ar
    16     6     7   ar
    17     7     8   ar
    18     8     9   ar
    19     9    12    1
    20    12    13   am
    21    12    14    2
    22     9    10   ar
    23    10    11   ar
    24    11     2   ar
    25    26    20   ar
    26    10     5   ar
    27    17    18    1
    28    13    15    1
    29    13    16    1
