@<TRIPOS>MOLECULE
*****
 59 65 0 0 0
SMALL
GASTEIGER

@<TRIPOS>ATOM
      1 N          64.0490   86.2405   15.8144 N.3     1  UNL1       -0.1862
      2 C          64.2038   84.7774   16.1067 C.3     1  UNL1        0.1775
      3 C          63.9745   83.7675   15.0215 C.2     1  UNL1        0.2452
      4 O          64.1293   82.3044   15.3139 O.2     1  UNL1       -0.2732
      5 N          63.5906   84.2207   13.6442 N.am    1  UNL1       -0.2541
      6 C          63.3614   83.2107   12.5590 C.3     1  UNL1        0.1577
      7 C          62.9775   83.6639   11.1817 C.2     1  UNL1        0.2445
      8 O          62.7483   82.6539   10.0965 O.2     1  UNL1       -0.2731
      9 N          62.8228   85.1270   10.8893 N.am    1  UNL1       -0.2705
     10 C          63.0520   86.1369   11.9745 C.3     1  UNL1        0.1359
     11 C          63.4359   85.6837   13.3519 C.3     1  UNL1        0.1908
     12 N          63.6651   86.6936   14.4370 N.am    1  UNL1       -0.1863
     13 C          63.5104   88.1568   14.1447 C.2     1  UNL1        0.3191
     14 O          63.1265   88.6099   12.7674 O.2     1  UNL1       -0.2512
     15 N          63.7396   89.1667   15.2299 N.am    1  UNL1       -0.2836
     16 H          63.9916   88.8693   16.1339 H       1  UNL1        0.1513
     17 C          64.2783   87.2504   16.8996 C.3     1  UNL1        0.1188
     18 C          62.4617   86.7183   18.6791 C.2     1  UNL1       -0.0034
     19 C          63.1355   87.6963   17.7628 C.2     1  UNL1       -0.0071
     20 C          63.5161   81.7477   12.8513 C.3     1  UNL1        0.0556
     21 C          62.3288   80.9397   13.2842 C.ar    1  UNL1       -0.0198
     22 C          61.0944   81.6294   13.7848 C.ar    1  UNL1       -0.0011
     23 C          59.9071   80.8214   14.2177 C.ar    1  UNL1        0.0363
     24 C          59.9542   79.3237   14.1502 C.ar    1  UNL1        0.1337
     25 O          58.7669   78.5157   14.5831 O.3     1  UNL1       -0.5055
     26 C          61.1886   78.6339   13.6496 C.ar    1  UNL1        0.0363
     27 C          62.3759   79.4419   13.2166 C.ar    1  UNL1       -0.0011
     28 H          57.9958   78.9465   14.8958 H       1  UNL1        0.2922
     29 C          62.4388   85.5801    9.5120 C.3     1  UNL1        0.1217
     30 C          61.9694   86.9873    9.2890 C.ar    1  UNL1        0.0135
     31 C          62.4726   88.0939   10.1677 C.ar    1  UNL1       -0.0012
     32 C          62.0032   89.5010    9.9447 C.ar    1  UNL1       -0.0002
     33 C          61.0306   89.8014    8.8430 C.ar    1  UNL1        0.0016
     34 C          60.5274   88.6948    7.9643 C.ar    1  UNL1        0.0214
     35 C          59.5720   88.6869    6.8080 C.ar    1  UNL1        0.0719
     36 C          59.4510   87.2750    6.3163 C.ar    1  UNL1        0.0805
     37 N          60.3315   86.4103    7.1687 N.ar    1  UNL1       -0.3241
     38 C          60.5147   84.9282    7.0275 C.3     1  UNL1        0.1305
     39 C          60.9968   87.2877    8.1873 C.ar    1  UNL1        0.0577
     40 C          58.8622   89.8814    6.2425 C.2     1  UNL1        0.2474
     41 O          57.3760   90.0132    6.3968 O.2     1  UNL1       -0.2701
     42 N          59.6387   90.9441    5.5229 N.am    1  UNL1       -0.2994
     43 H          60.6142   90.8575    5.4217 H       1  UNL1        0.1498
     44 C          58.9291   92.1385    4.9575 C.3     1  UNL1        0.1070
     45 C          59.0413   92.4550    3.4956 C.3     1  UNL1        0.0937
     46 N          60.3713   92.8232    2.9079 N.3     1  UNL1       -0.2689
     47 C          60.4887   94.0171    2.0073 C.3     1  UNL1        0.0897
     48 C          61.8187   94.3852    1.4197 C.3     1  UNL1        0.0897
     49 N          63.0313   93.5596    1.7325 N.3     1  UNL1       -0.2691
     50 C          64.3614   93.9278    1.1447 C.3     1  UNL1        0.0897
     51 C          62.9139   92.3657    2.6330 C.3     1  UNL1        0.0897
     52 C          61.5839   91.9976    3.2207 C.3     1  UNL1        0.0897
     53 C          63.5849   90.6298   14.9376 C.3     1  UNL1        0.1177
     54 C          64.6179   91.3441   14.1175 C.ar    1  UNL1       -0.0025
     55 C          64.3264   91.7020   12.6903 C.ar    1  UNL1       -0.0026
     56 C          65.3594   92.4164   11.8702 C.ar    1  UNL1       -0.0003
     57 C          66.6839   92.7728   12.4772 C.ar    1  UNL1       -0.0000
     58 C          66.9755   92.4149   13.9045 C.ar    1  UNL1       -0.0003
     59 C          65.9425   91.7005   14.7246 C.ar    1  UNL1       -0.0026
@<TRIPOS>BOND
     1    18    19    2
     2    19    17    1
     3    17     1    1
     4     1     2    1
     5     2     3    1
     6     3     4    2
     7     3     5   am
     8     5     6    1
     9     6    20    1
    10    20    21    1
    11    21    22   ar
    12    22    23   ar
    13    23    24   ar
    14    24    25    1
    15    24    26   ar
    16    26    27   ar
    17     6     7    1
    18     7     8    2
    19     7     9   am
    20     9    29    1
    21    29    30    1
    22    30    31   ar
    23    31    32   ar
    24    32    33   ar
    25    33    34   ar
    26    34    35   ar
    27    35    40    1
    28    40    41    2
    29    40    42   am
    30    42    44    1
    31    44    45    1
    32    45    46    1
    33    46    47    1
    34    47    48    1
    35    48    49    1
    36    49    50    1
    37    49    51    1
    38    51    52    1
    39    35    36   ar
    40    36    37   ar
    41    37    38    1
    42    37    39   ar
    43     9    10    1
    44    11    10    1
    45    11    12    1
    46    12    13   am
    47    13    14    2
    48    13    15   am
    49    15    53    1
    50    53    54    1
    51    54    55   ar
    52    55    56   ar
    53    56    57   ar
    54    57    58   ar
    55    58    59   ar
    56    12     1    1
    57    59    54   ar
    58    11     5    1
    59    27    21   ar
    60    39    30   ar
    61    39    34   ar
    62    52    46    1
    63    25    28    1
    64    42    43    1
    65    15    16    1
@<TRIPOS>MOLECULE
*****
 59 65 0 0 0
SMALL
GASTEIGER

@<TRIPOS>ATOM
      1 N          65.3929   89.3345   14.6579 N.3     1  UNL1       -0.1862
      2 C          65.5906   88.0867   15.4665 C.3     1  UNL1        0.1775
      3 C          64.8543   86.8319   15.1014 C.2     1  UNL1        0.2452
      4 O          65.0520   85.5841   15.9101 O.2     1  UNL1       -0.2732
      5 N          63.9204   86.8249   13.9277 N.am    1  UNL1       -0.2541
      6 C          63.1841   85.5700   13.5626 C.3     1  UNL1        0.1577
      7 C          62.2501   85.5630   12.3889 C.2     1  UNL1        0.2445
      8 O          61.5138   84.3082   12.0238 O.2     1  UNL1       -0.2731
      9 N          62.0524   86.8109   11.5803 N.am    1  UNL1       -0.2705
     10 C          62.7887   88.0657   11.9454 C.3     1  UNL1        0.1359
     11 C          63.7227   88.0727   13.1191 C.3     1  UNL1        0.1908
     12 N          64.4590   89.3275   13.4842 N.am    1  UNL1       -0.1863
     13 C          64.2612   90.5753   12.6756 C.2     1  UNL1        0.3191
     14 O          63.3273   90.5683   11.5019 O.2     1  UNL1       -0.2512
     15 N          64.9975   91.8302   13.0407 N.am    1  UNL1       -0.2836
     16 H          65.6105   91.8348   13.8110 H       1  UNL1        0.1513
     17 C          66.1292   90.5894   15.0230 C.3     1  UNL1        0.1188
     18 C          68.1406   92.1910   14.6506 C.2     1  UNL1       -0.0034
     19 C          67.4891   90.8551   14.4486 C.2     1  UNL1       -0.0071
     20 C          63.3818   84.3222   14.3712 C.3     1  UNL1        0.0556
     21 C          63.1787   82.9779   13.7376 C.ar    1  UNL1       -0.0198
     22 C          62.1585   82.0314   14.2973 C.ar    1  UNL1       -0.0011
     23 C          61.9555   80.6870   13.6637 C.ar    1  UNL1        0.0363
     24 C          62.7726   80.2892   12.4704 C.ar    1  UNL1        0.1337
     25 O          62.5695   78.9448   11.8368 O.3     1  UNL1       -0.5055
     26 C          63.7928   81.2357   11.9106 C.ar    1  UNL1        0.0363
     27 C          63.9959   82.5801   12.5442 C.ar    1  UNL1       -0.0011
     28 H          61.9322   78.3536   12.1864 H       1  UNL1        0.2922
     29 C          61.1184   86.8038   10.4066 C.3     1  UNL1        0.1217
     30 C          60.5327   88.0910    9.9064 C.ar    1  UNL1        0.0135
     31 C          60.3196   89.2356   10.8523 C.ar    1  UNL1       -0.0012
     32 C          59.7339   90.5227   10.3522 C.ar    1  UNL1       -0.0002
     33 C          59.3612   90.6654    8.9063 C.ar    1  UNL1        0.0016
     34 C          59.5743   89.5208    7.9604 C.ar    1  UNL1        0.0214
     35 C          59.3057   89.3684    6.4926 C.ar    1  UNL1        0.0719
     36 C          59.7254   87.9871    6.0855 C.ar    1  UNL1        0.0805
     37 N          60.2534   87.2858    7.3017 N.ar    1  UNL1       -0.3241
     38 C          60.7820   85.8829    7.3506 C.3     1  UNL1        0.1305
     39 C          60.1600   88.2337    8.4605 C.ar    1  UNL1        0.0577
     40 C          58.7201   90.4139    5.5902 C.2     1  UNL1        0.2474
     41 O          57.2411   90.4478    5.3424 O.2     1  UNL1       -0.2701
     42 N          59.6136   91.4255    4.9356 N.am    1  UNL1       -0.2994
     43 H          60.5843   91.4032    5.0983 H       1  UNL1        0.1498
     44 C          59.0281   92.4709    4.0333 C.3     1  UNL1        0.1070
     45 C          59.4877   92.5754    2.6093 C.3     1  UNL1        0.0937
     46 N          60.7971   93.2337    2.2901 N.3     1  UNL1       -0.2689
     47 C          60.8222   94.6408    1.7708 C.3     1  UNL1        0.0897
     48 C          62.1317   95.2991    1.4517 C.3     1  UNL1        0.0897
     49 N          63.4160   94.5504    1.6519 N.3     1  UNL1       -0.2691
     50 C          64.7255   95.2089    1.3327 C.3     1  UNL1        0.0897
     51 C          63.3909   93.1434    2.1712 C.3     1  UNL1        0.0897
     52 C          62.0814   92.4851    2.4903 C.3     1  UNL1        0.0897
     53 C          64.7998   93.0780   12.2321 C.3     1  UNL1        0.1177
     54 C          65.8379   93.4970   11.2337 C.ar    1  UNL1       -0.0025
     55 C          66.7903   92.4836   10.6717 C.ar    1  UNL1       -0.0026
     56 C          67.8283   92.9026    9.6733 C.ar    1  UNL1       -0.0003
     57 C          67.9140   94.3351    9.2369 C.ar    1  UNL1       -0.0000
     58 C          66.9616   95.3487    9.7988 C.ar    1  UNL1       -0.0003
     59 C          65.9236   94.9296   10.7972 C.ar    1  UNL1       -0.0026
@<TRIPOS>BOND
     1    18    19    2
     2    19    17    1
     3    17     1    1
     4     1     2    1
     5     2     3    1
     6     3     4    2
     7     3     5   am
     8     5     6    1
     9     6    20    1
    10    20    21    1
    11    21    22   ar
    12    22    23   ar
    13    23    24   ar
    14    24    25    1
    15    24    26   ar
    16    26    27   ar
    17     6     7    1
    18     7     8    2
    19     7     9   am
    20     9    29    1
    21    29    30    1
    22    30    31   ar
    23    31    32   ar
    24    32    33   ar
    25    33    34   ar
    26    34    35   ar
    27    35    40    1
    28    40    41    2
    29    40    42   am
    30    42    44    1
    31    44    45    1
    32    45    46    1
    33    46    47    1
    34    47    48    1
    35    48    49    1
    36    49    50    1
    37    49    51    1
    38    51    52    1
    39    35    36   ar
    40    36    37   ar
    41    37    38    1
    42    37    39   ar
    43     9    10    1
    44    11    10    1
    45    11    12    1
    46    12    13   am
    47    13    14    2
    48    13    15   am
    49    15    53    1
    50    53    54    1
    51    54    55   ar
    52    55    56   ar
    53    56    57   ar
    54    57    58   ar
    55    58    59   ar
    56    12     1    1
    57    59    54   ar
    58    11     5    1
    59    27    21   ar
    60    39    30   ar
    61    39    34   ar
    62    52    46    1
    63    25    28    1
    64    42    43    1
    65    15    16    1
@<TRIPOS>MOLECULE
*****
 59 65 0 0 0
SMALL
GASTEIGER

@<TRIPOS>ATOM
      1 N          61.4205   85.6089    8.0000 N.3     1  UNL1       -0.1862
      2 C          62.3724   84.5110    8.3720 C.3     1  UNL1        0.1775
      3 C          63.0380   84.5188    9.7162 C.2     1  UNL1        0.2452
      4 O          63.9900   83.4208   10.0881 O.2     1  UNL1       -0.2732
      5 N          62.7517   85.6246   10.6884 N.am    1  UNL1       -0.2541
      6 C          63.4174   85.6324   12.0326 C.3     1  UNL1        0.1577
      7 C          63.1311   86.7381   13.0049 C.2     1  UNL1        0.2445
      8 O          63.7967   86.7459   14.3491 O.2     1  UNL1       -0.2731
      9 N          62.1792   87.8361   12.6330 N.am    1  UNL1       -0.2705
     10 C          61.5135   87.8283   11.2888 C.3     1  UNL1        0.1359
     11 C          61.7998   86.7225   10.3165 C.3     1  UNL1        0.1908
     12 N          61.1342   86.7147    8.9723 N.am    1  UNL1       -0.1863
     13 C          60.1823   87.8127    8.6004 C.2     1  UNL1        0.3191
     14 O          59.8960   88.9184    9.5726 O.2     1  UNL1       -0.2512
     15 N          59.5166   87.8049    7.2562 N.am    1  UNL1       -0.2836
     16 H          59.7045   87.0791    6.6180 H       1  UNL1        0.1513
     17 C          60.7549   85.6011    6.6558 C.3     1  UNL1        0.1188
     18 C          62.3140   84.2540    5.0733 C.2     1  UNL1       -0.0034
     19 C          60.9737   84.4518    5.7172 C.2     1  UNL1       -0.0071
     20 C          64.3693   84.5344   12.4046 C.3     1  UNL1        0.0556
     21 C          63.8450   83.2434   12.9599 C.ar    1  UNL1       -0.0198
     22 C          62.5296   83.2159   13.6801 C.ar    1  UNL1       -0.0011
     23 C          62.0053   81.9249   14.2354 C.ar    1  UNL1        0.0363
     24 C          62.7966   80.6613   14.0705 C.ar    1  UNL1        0.1337
     25 O          62.2723   79.3702   14.6258 O.3     1  UNL1       -0.5055
     26 C          64.1121   80.6887   13.3502 C.ar    1  UNL1        0.0363
     27 C          64.6363   81.9797   12.7949 C.ar    1  UNL1       -0.0011
     28 H          61.4506   79.3531   15.0757 H       1  UNL1        0.2922
     29 C          61.8929   88.9419   13.6052 C.3     1  UNL1        0.1217
     30 C          62.9733   89.9151   13.9737 C.ar    1  UNL1        0.0135
     31 C          63.5487   89.9078   15.3589 C.ar    1  UNL1       -0.0012
     32 C          64.6291   90.8809   15.7274 C.ar    1  UNL1       -0.0002
     33 C          65.1340   91.8613   14.7106 C.ar    1  UNL1        0.0016
     34 C          64.5586   91.8686   13.3254 C.ar    1  UNL1        0.0214
     35 C          64.8538   92.7116   12.1203 C.ar    1  UNL1        0.0719
     36 C          63.9558   92.2594   11.0071 C.ar    1  UNL1        0.0805
     37 N          63.1057   91.1370   11.5241 N.ar    1  UNL1       -0.3241
     38 C          62.0657   90.3877   10.7452 C.3     1  UNL1        0.1305
     39 C          63.4782   90.8954   12.9569 C.ar    1  UNL1        0.0577
     40 C          65.8688   93.8134   12.0422 C.2     1  UNL1        0.2474
     41 O          67.2341   93.6185   12.6321 O.2     1  UNL1       -0.2701
     42 N          65.5184   95.1099   11.3742 N.am    1  UNL1       -0.2994
     43 H          64.6223   95.2377   10.9871 H       1  UNL1        0.1498
     44 C          66.5333   96.2116   11.2961 C.3     1  UNL1        0.1070
     45 C          67.4783   96.2798   10.1333 C.3     1  UNL1        0.0937
     46 N          67.9302   95.0183    9.4592 N.3     1  UNL1       -0.2689
     47 C          68.5061   93.8977   10.2733 C.3     1  UNL1        0.0897
     48 C          68.9579   92.6363    9.5992 C.3     1  UNL1        0.0897
     49 N          68.8340   92.4953    8.1110 N.3     1  UNL1       -0.2691
     50 C          69.2859   91.2338    7.4368 C.3     1  UNL1        0.0897
     51 C          68.2582   93.6159    7.2968 C.3     1  UNL1        0.0897
     52 C          67.8063   94.8773    7.9710 C.3     1  UNL1        0.0897
     53 C          58.5647   88.9028    6.8842 C.3     1  UNL1        0.1177
     54 C          59.0075   89.9982    5.9600 C.ar    1  UNL1       -0.0025
     55 C          60.4615   90.1574    5.6280 C.ar    1  UNL1       -0.0026
     56 C          60.9042   91.2528    4.7038 C.ar    1  UNL1       -0.0003
     57 C          59.8929   92.1890    4.1117 C.ar    1  UNL1       -0.0000
     58 C          58.4387   92.0298    4.4438 C.ar    1  UNL1       -0.0003
     59 C          57.9960   90.9344    5.3679 C.ar    1  UNL1       -0.0026
@<TRIPOS>BOND
     1    18    19    2
     2    19    17    1
     3    17     1    1
     4     1     2    1
     5     2     3    1
     6     3     4    2
     7     3     5   am
     8     5     6    1
     9     6    20    1
    10    20    21    1
    11    21    22   ar
    12    22    23   ar
    13    23    24   ar
    14    24    25    1
    15    24    26   ar
    16    26    27   ar
    17     6     7    1
    18     7     8    2
    19     7     9   am
    20     9    29    1
    21    29    30    1
    22    30    31   ar
    23    31    32   ar
    24    32    33   ar
    25    33    34   ar
    26    34    35   ar
    27    35    40    1
    28    40    41    2
    29    40    42   am
    30    42    44    1
    31    44    45    1
    32    45    46    1
    33    46    47    1
    34    47    48    1
    35    48    49    1
    36    49    50    1
    37    49    51    1
    38    51    52    1
    39    35    36   ar
    40    36    37   ar
    41    37    38    1
    42    37    39   ar
    43     9    10    1
    44    11    10    1
    45    11    12    1
    46    12    13   am
    47    13    14    2
    48    13    15   am
    49    15    53    1
    50    53    54    1
    51    54    55   ar
    52    55    56   ar
    53    56    57   ar
    54    57    58   ar
    55    58    59   ar
    56    12     1    1
    57    59    54   ar
    58    11     5    1
    59    27    21   ar
    60    39    30   ar
    61    39    34   ar
    62    52    46    1
    63    25    28    1
    64    42    43    1
    65    15    16    1
@<TRIPOS>MOLECULE
*****
 59 65 0 0 0
SMALL
GASTEIGER

@<TRIPOS>ATOM
      1 N          63.4291   86.1661   15.8698 N.3     1  UNL1       -0.1862
      2 C          63.4344   84.7151   16.2499 C.3     1  UNL1        0.1775
      3 C          63.5430   83.6618   15.1874 C.2     1  UNL1        0.2452
      4 O          63.5484   82.2107   15.5675 O.2     1  UNL1       -0.2732
      5 N          63.6462   84.0596   13.7448 N.am    1  UNL1       -0.2541
      6 C          63.7548   83.0064   12.6823 C.3     1  UNL1        0.1577
      7 C          63.8580   83.4041   11.2397 C.2     1  UNL1        0.2445
      8 O          63.9666   82.3509   10.1772 O.2     1  UNL1       -0.2731
      9 N          63.8527   84.8552   10.8596 N.am    1  UNL1       -0.2705
     10 C          63.7441   85.9084   11.9221 C.3     1  UNL1        0.1359
     11 C          63.6409   85.5106   13.3647 C.3     1  UNL1        0.1908
     12 N          63.5323   86.5638   14.4273 N.am    1  UNL1       -0.1863
     13 C          63.5270   88.0149   14.0471 C.2     1  UNL1        0.3191
     14 O          63.6302   88.4127   12.6045 O.2     1  UNL1       -0.2512
     15 N          63.4184   89.0681   15.1096 N.am    1  UNL1       -0.2836
     16 H          63.3507   88.8071   16.0564 H       1  UNL1        0.1513
     17 C          63.3205   87.2193   16.9323 C.3     1  UNL1        0.1188
     18 C          62.7014   87.0410   19.4492 C.2     1  UNL1       -0.0034
     19 C          62.2842   87.0940   18.0094 C.2     1  UNL1       -0.0071
     20 C          63.7602   81.5554   13.0624 C.3     1  UNL1        0.0556
     21 C          62.4756   80.8697   13.4229 C.ar    1  UNL1       -0.0198
     22 C          62.4018   79.3716   13.4312 C.ar    1  UNL1       -0.0011
     23 C          61.1173   78.6860   13.7917 C.ar    1  UNL1        0.0363
     24 C          59.9066   79.4985   14.1439 C.ar    1  UNL1        0.1337
     25 O          58.6221   78.8128   14.5044 O.3     1  UNL1       -0.5055
     26 C          59.9804   80.9967   14.1356 C.ar    1  UNL1        0.0363
     27 C          61.2649   81.6823   13.7751 C.ar    1  UNL1       -0.0011
     28 H          58.5760   77.8770   14.5095 H       1  UNL1        0.2922
     29 C          63.9559   85.2530    9.4170 C.3     1  UNL1        0.1217
     30 C          62.7137   85.4038    8.5899 C.ar    1  UNL1        0.0135
     31 C          62.2170   84.2530    7.7659 C.ar    1  UNL1       -0.0012
     32 C          60.9748   84.4038    6.9388 C.ar    1  UNL1       -0.0002
     33 C          60.2293   85.7054    6.9356 C.ar    1  UNL1        0.0016
     34 C          60.7260   86.8563    7.7595 C.ar    1  UNL1        0.0214
     35 C          60.2056   88.2495    7.9546 C.ar    1  UNL1        0.0719
     36 C          61.1261   88.9597    8.9023 C.ar    1  UNL1        0.0805
     37 N          62.2155   88.0055    9.2929 N.ar    1  UNL1       -0.3241
     38 C          63.3525   88.2995   10.2260 C.3     1  UNL1        0.1305
     39 C          61.9682   86.7054    8.5867 C.ar    1  UNL1        0.0577
     40 C          58.9797   88.8305    7.3143 C.2     1  UNL1        0.2474
     41 O          57.6561   88.1412    7.4659 O.2     1  UNL1       -0.2701
     42 N          59.0776   90.1007    6.5226 N.am    1  UNL1       -0.2994
     43 H          59.9463   90.5531    6.4231 H       1  UNL1        0.1498
     44 C          57.8518   90.6817    5.8823 C.3     1  UNL1        0.1070
     45 C          57.9876   91.6883    4.7786 C.3     1  UNL1        0.0937
     46 N          59.3197   91.9102    4.1256 N.3     1  UNL1       -0.2689
     47 C          59.4287   92.8109    2.9311 C.3     1  UNL1        0.0897
     48 C          60.7608   93.0327    2.2782 C.3     1  UNL1        0.0897
     49 N          61.9839   92.3540    2.8199 N.3     1  UNL1       -0.2691
     50 C          63.3161   92.5759    2.1669 C.3     1  UNL1        0.0897
     51 C          61.8749   91.4533    4.0145 C.3     1  UNL1        0.0897
     52 C          60.5428   91.2315    4.6673 C.3     1  UNL1        0.0897
     53 C          63.4131   90.5192   14.7295 C.3     1  UNL1        0.1177
     54 C          64.6222   91.1303   14.0856 C.ar    1  UNL1       -0.0025
     55 C          64.5253   91.7076   12.7046 C.ar    1  UNL1       -0.0026
     56 C          65.7344   92.3187   12.0607 C.ar    1  UNL1       -0.0003
     57 C          67.0404   92.3525   12.7978 C.ar    1  UNL1       -0.0000
     58 C          67.1373   91.7751   14.1789 C.ar    1  UNL1       -0.0003
     59 C          65.9282   91.1640   14.8228 C.ar    1  UNL1       -0.0026
@<TRIPOS>BOND
     1    18    19    2
     2    19    17    1
     3    17     1    1
     4     1     2    1
     5     2     3    1
     6     3     4    2
     7     3     5   am
     8     5     6    1
     9     6    20    1
    10    20    21    1
    11    21    22   ar
    12    22    23   ar
    13    23    24   ar
    14    24    25    1
    15    24    26   ar
    16    26    27   ar
    17     6     7    1
    18     7     8    2
    19     7     9   am
    20     9    29    1
    21    29    30    1
    22    30    31   ar
    23    31    32   ar
    24    32    33   ar
    25    33    34   ar
    26    34    35   ar
    27    35    40    1
    28    40    41    2
    29    40    42   am
    30    42    44    1
    31    44    45    1
    32    45    46    1
    33    46    47    1
    34    47    48    1
    35    48    49    1
    36    49    50    1
    37    49    51    1
    38    51    52    1
    39    35    36   ar
    40    36    37   ar
    41    37    38    1
    42    37    39   ar
    43     9    10    1
    44    11    10    1
    45    11    12    1
    46    12    13   am
    47    13    14    2
    48    13    15   am
    49    15    53    1
    50    53    54    1
    51    54    55   ar
    52    55    56   ar
    53    56    57   ar
    54    57    58   ar
    55    58    59   ar
    56    12     1    1
    57    59    54   ar
    58    11     5    1
    59    27    21   ar
    60    39    30   ar
    61    39    34   ar
    62    52    46    1
    63    25    28    1
    64    42    43    1
    65    15    16    1
