@<TRIPOS>MOLECULE
*****
 53 60 0 0 0
SMALL
GASTEIGER

@<TRIPOS>ATOM
      1 C          62.3777   85.3426   11.0712 C.ar    1  UNL1        0.2075
      2 N          62.9392   84.7068    9.8341 N.ar    1  UNL1       -0.1074
      3 N          62.3592   85.4140    8.6453 N.ar    1  UNL1       -0.0406
      4 N          61.4392   86.4870    9.1476 N.ar    1  UNL1       -0.1285
      5 N          61.4506   86.4429   10.6469 N.ar    1  UNL1       -0.1253
      6 C          63.3105   84.1575   15.3110 C.ar    1  UNL1        0.1736
      7 C          63.7210   85.5074   14.8019 C.ar    1  UNL1        0.0548
      8 C          63.4101   85.9025   13.3887 C.ar    1  UNL1        0.0569
      9 C          62.6886   84.9476   12.4845 C.ar    1  UNL1        0.0560
     10 C          62.2780   83.5976   12.9935 C.ar    1  UNL1        0.0444
     11 C          62.5890   83.2026   14.4068 C.ar    1  UNL1        0.1726
     12 N          63.8206   87.2524   12.8797 N.am    1  UNL1       -0.2777
     13 C          63.8466   88.4287   13.8101 C.2     1  UNL1        0.2843
     14 O          63.4621   88.2551   15.2495 O.2     1  UNL1       -0.2665
     15 H          64.0730   87.3663   11.9349 H       1  UNL1        0.1553
     16 C          64.2572   89.7786   13.3010 C.ar    1  UNL1        0.2017
     17 C          63.7636   90.2597   11.9687 C.ar    1  UNL1        0.0843
     18 C          64.1741   91.6096   11.4597 C.ar    1  UNL1        0.2018
     19 O          63.6806   92.0907   10.1274 O.2     1  UNL1       -0.2864
     20 C          65.0782   92.4785   12.2829 C.ar    1  UNL1        0.0735
     21 C          65.4888   93.8284   11.7738 C.ar    1  UNL1        0.0062
     22 C          66.3929   94.6973   12.5971 C.ar    1  UNL1        0.0003
     23 C          66.8864   94.2162   13.9293 C.ar    1  UNL1        0.0031
     24 C          66.4759   92.8663   14.4384 C.ar    1  UNL1        0.0376
     25 C          65.5718   91.9975   13.6151 C.ar    1  UNL1        0.1485
     26 O          65.1612   90.6475   14.1243 O.2     1  UNL1       -0.4487
     27 C          63.5250   84.7768   17.8250 C.3     1  UNL1        0.2526
     28 O          63.6214   83.7625   16.7242 O.3     1  UNL1       -0.4683
     29 O          62.1784   81.8527   14.9158 O.3     1  UNL1       -0.4684
     30 C          61.1896   81.0294   14.1449 C.3     1  UNL1        0.2526
     31 C          60.6469   87.4373    8.2995 C.ar    1  UNL1        0.1045
     32 C          59.8550   86.9214    7.1347 C.ar    1  UNL1        0.0206
     33 C          59.0627   87.8717    6.2866 C.ar    1  UNL1       -0.0026
     34 C          59.0623   89.3378    6.6034 C.ar    1  UNL1       -0.0207
     35 C          59.8541   89.8537    7.7683 C.ar    1  UNL1       -0.0026
     36 C          60.6464   88.9034    8.6163 C.ar    1  UNL1        0.0206
     37 C          58.2700   90.2882    5.7554 C.3     1  UNL1        0.0437
     38 C          58.7826   91.6754    5.5048 C.3     1  UNL1        0.0771
     39 N          59.8447   91.9072    4.4712 N.3     1  UNL1       -0.2683
     40 C          61.1807   91.2388    4.6059 C.3     1  UNL1        0.0771
     41 C          62.2429   91.4706    3.5724 C.3     1  UNL1        0.0434
     42 C          61.9689   92.3707    2.4042 C.ar    1  UNL1       -0.0233
     43 C          63.0311   92.6024    1.3707 C.ar    1  UNL1       -0.0030
     44 C          62.7572   93.5026    0.2025 C.ar    1  UNL1        0.0172
     45 C          61.4211   94.1710    0.0678 C.ar    1  UNL1        0.0652
     46 C          60.3589   93.9392    1.1013 C.ar    1  UNL1        0.0143
     47 C          60.6329   93.0391    2.2695 C.ar    1  UNL1       -0.0086
     48 C          59.5707   92.8074    3.3030 C.3     1  UNL1        0.0989
     49 N          61.1472   95.0711   -1.1004 N.ar    1  UNL1       -0.2864
     50 C          59.7960   95.5327   -1.5600 C.ar    1  UNL1        0.1022
     51 C          59.9901   96.4145   -2.7578 C.ar    1  UNL1        0.1196
     52 N          61.4612   96.4980   -3.0384 N.ar    1  UNL1       -0.2220
     53 C          62.1764   95.6677   -2.0142 C.ar    1  UNL1        0.1828
@<TRIPOS>BOND
     1    27    28    1
     2    28     6    1
     3     6     7   ar
     4     7     8   ar
     5     8    12    1
     6    12    13   am
     7    13    14    2
     8    13    16    1
     9    16    17   ar
    10    17    18   ar
    11    18    19    2
    12    18    20   ar
    13    20    21   ar
    14    21    22   ar
    15    22    23   ar
    16    23    24   ar
    17    24    25   ar
    18    25    26   ar
    19     8     9   ar
    20     9     1    1
    21     1     2   ar
    22     2     3   ar
    23     3     4   ar
    24     4    31    1
    25    31    32   ar
    26    32    33   ar
    27    33    34   ar
    28    34    37    1
    29    37    38    1
    30    38    39    1
    31    39    40    1
    32    40    41    1
    33    41    42    1
    34    42    43   ar
    35    43    44   ar
    36    44    45   ar
    37    45    49    1
    38    49    50   ar
    39    50    51   ar
    40    51    52   ar
    41    52    53   ar
    42    45    46   ar
    43    46    47   ar
    44    47    48    1
    45    34    35   ar
    46    35    36   ar
    47     4     5   ar
    48     9    10   ar
    49    10    11   ar
    50    11    29    1
    51    29    30    1
    52    11     6   ar
    53    26    16   ar
    54     5     1   ar
    55    25    20   ar
    56    36    31   ar
    57    48    39    1
    58    47    42   ar
    59    53    49   ar
    60    12    15    1
@<TRIPOS>MOLECULE
*****
 53 60 0 0 0
SMALL
GASTEIGER

@<TRIPOS>ATOM
      1 C          61.5146   86.4147   11.3572 C.ar    1  UNL1        0.2075
      2 N          60.7720   87.4248   12.1808 N.ar    1  UNL1       -0.1074
      3 N          60.1284   88.4038   11.2442 N.ar    1  UNL1       -0.0406
      4 N          60.4733   87.9988    9.8417 N.ar    1  UNL1       -0.1285
      5 N          61.3300   86.7694    9.9115 N.ar    1  UNL1       -0.1253
      6 C          63.8808   82.9318   12.9448 C.ar    1  UNL1        0.1736
      7 C          64.2941   84.3342   13.2797 C.ar    1  UNL1        0.0548
      8 C          63.5054   85.4952   12.7505 C.ar    1  UNL1        0.0569
      9 C          62.3034   85.2537   11.8864 C.ar    1  UNL1        0.0560
     10 C          61.8900   83.8512   11.5514 C.ar    1  UNL1        0.0444
     11 C          62.6788   82.6902   12.0806 C.ar    1  UNL1        0.1726
     12 N          63.9187   86.8977   13.0855 N.am    1  UNL1       -0.2777
     13 C          63.9434   87.3511   14.5152 C.2     1  UNL1        0.2843
     14 O          63.5549   86.4020   15.6098 O.2     1  UNL1       -0.2665
     15 H          64.1737   87.5206   12.3670 H       1  UNL1        0.1553
     16 C          64.3567   88.7536   14.8501 C.ar    1  UNL1        0.2017
     17 C          63.4743   89.6108   15.7084 C.ar    1  UNL1        0.0843
     18 C          63.8875   91.0133   16.0433 C.ar    1  UNL1        0.2018
     19 O          63.0051   91.8704   16.9015 O.2     1  UNL1       -0.2864
     20 C          65.1832   91.5586   15.5201 C.ar    1  UNL1        0.0735
     21 C          65.5965   92.9611   15.8550 C.ar    1  UNL1        0.0062
     22 C          66.8922   93.5064   15.3318 C.ar    1  UNL1        0.0003
     23 C          67.7747   92.6492   14.4736 C.ar    1  UNL1        0.0031
     24 C          67.3614   91.2467   14.1386 C.ar    1  UNL1        0.0376
     25 C          66.0657   90.7014   14.6619 C.ar    1  UNL1        0.1485
     26 O          65.6524   89.2989   14.3269 O.2     1  UNL1       -0.4487
     27 C          63.9666   80.6361   14.1582 C.3     1  UNL1        0.2526
     28 O          64.6696   81.7708   13.4740 O.3     1  UNL1       -0.4683
     29 O          62.2655   81.2878   11.7456 O.3     1  UNL1       -0.4684
     30 C          62.9376   80.5560   10.6220 C.3     1  UNL1        0.2526
     31 C          60.0378   88.6999    8.5891 C.ar    1  UNL1        0.1045
     32 C          59.0740   88.0334    7.6528 C.ar    1  UNL1        0.0206
     33 C          58.6386   88.7345    6.4003 C.ar    1  UNL1       -0.0026
     34 C          59.1670   90.1022    6.0841 C.ar    1  UNL1       -0.0207
     35 C          60.1309   90.7688    7.0204 C.ar    1  UNL1       -0.0026
     36 C          60.5663   90.0677    8.2730 C.ar    1  UNL1        0.0206
     37 C          58.7317   90.8035    4.8316 C.3     1  UNL1        0.0437
     38 C          59.2514   92.1760    4.5214 C.3     1  UNL1        0.0771
     39 N          60.0426   92.4131    3.2692 N.3     1  UNL1       -0.2683
     40 C          61.5411   92.3586    3.3074 C.3     1  UNL1        0.0771
     41 C          62.3323   92.5957    2.0553 C.3     1  UNL1        0.0434
     42 C          61.6249   92.8872    0.7650 C.ar    1  UNL1       -0.0233
     43 C          62.4163   93.1243   -0.4870 C.ar    1  UNL1       -0.0030
     44 C          61.7090   93.4158   -1.7773 C.ar    1  UNL1        0.0172
     45 C          60.2104   93.4703   -1.8154 C.ar    1  UNL1        0.0652
     46 C          59.4192   93.2332   -0.5633 C.ar    1  UNL1        0.0143
     47 C          60.1264   92.9417    0.7269 C.ar    1  UNL1       -0.0086
     48 C          59.3353   92.7046    1.9790 C.3     1  UNL1        0.0989
     49 N          59.5031   93.7618   -3.1057 N.ar    1  UNL1       -0.2864
     50 C          58.2707   93.0721   -3.6109 C.ar    1  UNL1        0.1022
     51 C          57.9099   93.6783   -4.9347 C.ar    1  UNL1        0.1196
     52 N          58.9195   94.7427   -5.2476 N.ar    1  UNL1       -0.2220
     53 C          59.9042   94.7943   -4.1173 C.ar    1  UNL1        0.1828
@<TRIPOS>BOND
     1    27    28    1
     2    28     6    1
     3     6     7   ar
     4     7     8   ar
     5     8    12    1
     6    12    13   am
     7    13    14    2
     8    13    16    1
     9    16    17   ar
    10    17    18   ar
    11    18    19    2
    12    18    20   ar
    13    20    21   ar
    14    21    22   ar
    15    22    23   ar
    16    23    24   ar
    17    24    25   ar
    18    25    26   ar
    19     8     9   ar
    20     9     1    1
    21     1     2   ar
    22     2     3   ar
    23     3     4   ar
    24     4    31    1
    25    31    32   ar
    26    32    33   ar
    27    33    34   ar
    28    34    37    1
    29    37    38    1
    30    38    39    1
    31    39    40    1
    32    40    41    1
    33    41    42    1
    34    42    43   ar
    35    43    44   ar
    36    44    45   ar
    37    45    49    1
    38    49    50   ar
    39    50    51   ar
    40    51    52   ar
    41    52    53   ar
    42    45    46   ar
    43    46    47   ar
    44    47    48    1
    45    34    35   ar
    46    35    36   ar
    47     4     5   ar
    48     9    10   ar
    49    10    11   ar
    50    11    29    1
    51    29    30    1
    52    11     6   ar
    53    26    16   ar
    54     5     1   ar
    55    25    20   ar
    56    36    31   ar
    57    48    39    1
    58    47    42   ar
    59    53    49   ar
    60    12    15    1
@<TRIPOS>MOLECULE
*****
 53 60 0 0 0
SMALL
GASTEIGER

@<TRIPOS>ATOM
      1 C          62.3914   86.8748   11.8232 C.ar    1  UNL1        0.2075
      2 N          62.7284   88.3012   12.1424 N.ar    1  UNL1       -0.1074
      3 N          62.0916   89.1724   11.1005 N.ar    1  UNL1       -0.0406
      4 N          61.3610   88.2844   10.1373 N.ar    1  UNL1       -0.1285
      5 N          61.5462   86.8644   10.5839 N.ar    1  UNL1       -0.1253
      6 C          63.6879   83.2614   14.1710 C.ar    1  UNL1        0.1736
      7 C          64.3149   84.5967   14.4424 C.ar    1  UNL1        0.0548
      8 C          63.8828   85.8012   13.6598 C.ar    1  UNL1        0.0569
      9 C          62.8235   85.6704   12.6058 C.ar    1  UNL1        0.0560
     10 C          62.1964   84.3350   12.3344 C.ar    1  UNL1        0.0444
     11 C          62.6286   83.1305   13.1170 C.ar    1  UNL1        0.1726
     12 N          64.5098   87.1365   13.9312 N.am    1  UNL1       -0.2777
     13 C          63.8842   88.0711   14.9238 C.2     1  UNL1        0.2843
     14 O          62.6316   87.6702   15.6451 O.2     1  UNL1       -0.2665
     15 H          65.3319   87.3996   13.4578 H       1  UNL1        0.1553
     16 C          64.5112   89.4064   15.1952 C.ar    1  UNL1        0.2017
     17 C          63.7639   90.4392   15.9857 C.ar    1  UNL1        0.0843
     18 C          64.3909   91.7745   16.2571 C.ar    1  UNL1        0.2018
     19 O          63.6435   92.8073   17.0476 O.2     1  UNL1       -0.2864
     20 C          65.7653   92.0772   15.7380 C.ar    1  UNL1        0.0735
     21 C          66.3923   93.4125   16.0094 C.ar    1  UNL1        0.0062
     22 C          67.7667   93.7151   15.4903 C.ar    1  UNL1        0.0003
     23 C          68.5141   92.6824   14.6998 C.ar    1  UNL1        0.0031
     24 C          67.8870   91.3470   14.4284 C.ar    1  UNL1        0.0376
     25 C          66.5126   91.0444   14.9475 C.ar    1  UNL1        0.1485
     26 O          65.8856   89.7090   14.6761 O.2     1  UNL1       -0.4487
     27 C          64.6546   80.8509   14.2398 C.3     1  UNL1        0.2526
     28 O          64.1201   82.0570   14.9536 O.3     1  UNL1       -0.4683
     29 O          62.0016   81.7952   12.8457 O.3     1  UNL1       -0.4684
     30 C          61.2181   81.1022   13.9207 C.3     1  UNL1        0.2526
     31 C          60.5820   88.7368    8.9380 C.ar    1  UNL1        0.1045
     32 C          60.5410   90.1918    8.5755 C.ar    1  UNL1        0.0206
     33 C          59.7619   90.6443    7.3762 C.ar    1  UNL1       -0.0026
     34 C          59.0238   89.6418    6.5394 C.ar    1  UNL1       -0.0207
     35 C          59.0648   88.1868    6.9020 C.ar    1  UNL1       -0.0026
     36 C          59.8438   87.7344    8.1013 C.ar    1  UNL1        0.0206
     37 C          58.2447   90.0941    5.3401 C.3     1  UNL1        0.0437
     38 C          58.4601   91.4692    4.7809 C.3     1  UNL1        0.0771
     39 N          59.7249   91.7881    4.0403 N.3     1  UNL1       -0.2683
     40 C          61.0140   91.1344    4.4414 C.3     1  UNL1        0.0771
     41 C          62.2788   91.4532    3.7008 C.3     1  UNL1        0.0434
     42 C          62.2546   92.4257    2.5590 C.ar    1  UNL1       -0.0233
     43 C          63.5195   92.7445    1.8184 C.ar    1  UNL1       -0.0030
     44 C          63.4953   93.7170    0.6767 C.ar    1  UNL1        0.0172
     45 C          62.2062   94.3708    0.2755 C.ar    1  UNL1        0.0652
     46 C          60.9413   94.0519    1.0162 C.ar    1  UNL1        0.0143
     47 C          60.9655   93.0795    2.1579 C.ar    1  UNL1       -0.0086
     48 C          59.7007   92.7606    2.8985 C.3     1  UNL1        0.0989
     49 N          62.1819   95.3433   -0.8662 N.ar    1  UNL1       -0.2864
     50 C          63.3809   95.9409   -1.5410 C.ar    1  UNL1        0.1022
     51 C          62.8945   96.8559   -2.6255 C.ar    1  UNL1        0.1196
     52 N          61.3948   96.8239   -2.6209 N.ar    1  UNL1       -0.2220
     53 C          60.9544   95.8890   -1.5336 C.ar    1  UNL1        0.1828
@<TRIPOS>BOND
     1    27    28    1
     2    28     6    1
     3     6     7   ar
     4     7     8   ar
     5     8    12    1
     6    12    13   am
     7    13    14    2
     8    13    16    1
     9    16    17   ar
    10    17    18   ar
    11    18    19    2
    12    18    20   ar
    13    20    21   ar
    14    21    22   ar
    15    22    23   ar
    16    23    24   ar
    17    24    25   ar
    18    25    26   ar
    19     8     9   ar
    20     9     1    1
    21     1     2   ar
    22     2     3   ar
    23     3     4   ar
    24     4    31    1
    25    31    32   ar
    26    32    33   ar
    27    33    34   ar
    28    34    37    1
    29    37    38    1
    30    38    39    1
    31    39    40    1
    32    40    41    1
    33    41    42    1
    34    42    43   ar
    35    43    44   ar
    36    44    45   ar
    37    45    49    1
    38    49    50   ar
    39    50    51   ar
    40    51    52   ar
    41    52    53   ar
    42    45    46   ar
    43    46    47   ar
    44    47    48    1
    45    34    35   ar
    46    35    36   ar
    47     4     5   ar
    48     9    10   ar
    49    10    11   ar
    50    11    29    1
    51    29    30    1
    52    11     6   ar
    53    26    16   ar
    54     5     1   ar
    55    25    20   ar
    56    36    31   ar
    57    48    39    1
    58    47    42   ar
    59    53    49   ar
    60    12    15    1
@<TRIPOS>MOLECULE
*****
 53 60 0 0 0
SMALL
GASTEIGER

@<TRIPOS>ATOM
      1 C          63.0850   83.9861   14.2963 C.ar    1  UNL1        0.2075
      2 N          62.8655   83.7389   15.7595 N.ar    1  UNL1       -0.1074
      3 N          63.0244   85.0452   16.4793 N.ar    1  UNL1       -0.0406
      4 N          63.3422   86.0999   15.4611 N.ar    1  UNL1       -0.1285
      5 N          63.3796   85.4454   14.1119 N.ar    1  UNL1       -0.1253
      6 C          62.8933   80.8934   11.0332 C.ar    1  UNL1        0.1736
      7 C          63.0205   82.3463   10.6829 C.ar    1  UNL1        0.0548
      8 C          63.0844   83.3772   11.7706 C.ar    1  UNL1        0.0569
      9 C          63.0211   82.9552   13.2086 C.ar    1  UNL1        0.0560
     10 C          62.8938   81.5022   13.5589 C.ar    1  UNL1        0.0444
     11 C          62.8299   80.4713   12.4712 C.ar    1  UNL1        0.1726
     12 N          63.2117   84.8302   11.4204 N.am    1  UNL1       -0.2777
     13 C          61.9949   85.6179   11.0342 C.2     1  UNL1        0.2843
     14 O          60.6510   84.9527   10.9983 O.2     1  UNL1       -0.2665
     15 H          64.0937   85.2668   11.4440 H       1  UNL1        0.1553
     16 C          62.1222   87.0709   10.6839 C.ar    1  UNL1        0.2017
     17 C          61.3433   87.6360    9.5332 C.ar    1  UNL1        0.0843
     18 C          61.4706   89.0889    9.1830 C.ar    1  UNL1        0.2018
     19 O          60.6917   89.6540    8.0323 O.2     1  UNL1       -0.2864
     20 C          62.3767   89.9768    9.9834 C.ar    1  UNL1        0.0735
     21 C          62.5039   91.4298    9.6331 C.ar    1  UNL1        0.0062
     22 C          63.4100   92.3177   10.4335 C.ar    1  UNL1        0.0003
     23 C          64.1888   91.7526   11.5842 C.ar    1  UNL1        0.0031
     24 C          64.0616   90.2997   11.9344 C.ar    1  UNL1        0.0376
     25 C          63.1555   89.4118   11.1340 C.ar    1  UNL1        0.1485
     26 O          63.0283   87.9588   11.4843 O.2     1  UNL1       -0.4487
     27 C          62.9048   78.4043   10.2888 C.3     1  UNL1        0.2526
     28 O          62.8294   79.8625    9.9455 O.3     1  UNL1       -0.4683
     29 O          62.7027   79.0183   12.8215 O.3     1  UNL1       -0.4684
     30 C          61.9413   78.6061   14.0463 C.3     1  UNL1        0.2526
     31 C          63.5806   87.5538   15.7426 C.ar    1  UNL1        0.1045
     32 C          64.3775   88.3833   14.7798 C.ar    1  UNL1        0.0206
     33 C          64.6160   89.8372   15.0612 C.ar    1  UNL1       -0.0026
     34 C          64.0576   90.4616   16.3055 C.ar    1  UNL1       -0.0207
     35 C          63.2606   89.6322   17.2683 C.ar    1  UNL1       -0.0026
     36 C          63.0222   88.1782   16.9868 C.ar    1  UNL1        0.0206
     37 C          64.2959   91.9156   16.5870 C.3     1  UNL1        0.0437
     38 C          65.6699   92.4953   16.4251 C.3     1  UNL1        0.0771
     39 N          66.3459   92.4600   15.0865 N.3     1  UNL1       -0.2683
     40 C          67.4126   91.4418   14.8117 C.3     1  UNL1        0.0771
     41 C          68.0886   91.4065   13.4732 C.3     1  UNL1        0.0434
     42 C          67.6978   92.3892   12.4094 C.ar    1  UNL1       -0.0233
     43 C          68.3739   92.3537   11.0708 C.ar    1  UNL1       -0.0030
     44 C          67.9832   93.3364   10.0071 C.ar    1  UNL1        0.0172
     45 C          66.9165   94.3545   10.2818 C.ar    1  UNL1        0.0652
     46 C          66.2404   94.3900   11.6205 C.ar    1  UNL1        0.0143
     47 C          66.6311   93.4073   12.6842 C.ar    1  UNL1       -0.0086
     48 C          65.9551   93.4427   14.0227 C.3     1  UNL1        0.0989
     49 N          66.5258   95.3373    9.2181 N.ar    1  UNL1       -0.2864
     50 C          67.4321   95.9047    8.1661 C.ar    1  UNL1        0.1022
     51 C          66.6266   96.8432    7.3174 C.ar    1  UNL1        0.1196
     52 N          65.2224   96.8558    7.8448 N.ar    1  UNL1       -0.2220
     53 C          65.1601   95.9251    9.0195 C.ar    1  UNL1        0.1828
@<TRIPOS>BOND
     1    27    28    1
     2    28     6    1
     3     6     7   ar
     4     7     8   ar
     5     8    12    1
     6    12    13   am
     7    13    14    2
     8    13    16    1
     9    16    17   ar
    10    17    18   ar
    11    18    19    2
    12    18    20   ar
    13    20    21   ar
    14    21    22   ar
    15    22    23   ar
    16    23    24   ar
    17    24    25   ar
    18    25    26   ar
    19     8     9   ar
    20     9     1    1
    21     1     2   ar
    22     2     3   ar
    23     3     4   ar
    24     4    31    1
    25    31    32   ar
    26    32    33   ar
    27    33    34   ar
    28    34    37    1
    29    37    38    1
    30    38    39    1
    31    39    40    1
    32    40    41    1
    33    41    42    1
    34    42    43   ar
    35    43    44   ar
    36    44    45   ar
    37    45    49    1
    38    49    50   ar
    39    50    51   ar
    40    51    52   ar
    41    52    53   ar
    42    45    46   ar
    43    46    47   ar
    44    47    48    1
    45    34    35   ar
    46    35    36   ar
    47     4     5   ar
    48     9    10   ar
    49    10    11   ar
    50    11    29    1
    51    29    30    1
    52    11     6   ar
    53    26    16   ar
    54     5     1   ar
    55    25    20   ar
    56    36    31   ar
    57    48    39    1
    58    47    42   ar
    59    53    49   ar
    60    12    15    1
@<TRIPOS>MOLECULE
*****
 53 60 0 0 0
SMALL
GASTEIGER

@<TRIPOS>ATOM
      1 C          62.2052   89.2153   10.8796 C.ar    1  UNL1        0.2075
      2 N          61.4817   87.9141   10.6965 N.ar    1  UNL1       -0.1074
      3 N          60.6796   88.0036    9.4321 N.ar    1  UNL1       -0.0406
      4 N          60.9074   89.3601    8.8338 N.ar    1  UNL1       -0.1285
      5 N          61.8503   90.1090    9.7283 N.ar    1  UNL1       -0.1253
      6 C          64.9573   90.2552   14.2847 C.ar    1  UNL1        0.1736
      7 C          64.5618   88.8276   14.0491 C.ar    1  UNL1        0.0548
      8 C          63.6445   88.4810   12.9141 C.ar    1  UNL1        0.0569
      9 C          63.1226   89.5619   12.0146 C.ar    1  UNL1        0.0560
     10 C          63.5181   90.9896   12.2501 C.ar    1  UNL1        0.0444
     11 C          64.4354   91.3363   13.3851 C.ar    1  UNL1        0.1726
     12 N          63.2490   87.0534   12.6786 N.am    1  UNL1       -0.2777
     13 C          63.8508   85.9611   13.5122 C.2     1  UNL1        0.2843
     14 O          64.8481   86.2965   14.5812 O.2     1  UNL1       -0.2665
     15 H          62.5944   86.8333   11.9769 H       1  UNL1        0.1553
     16 C          63.4553   84.5335   13.2767 C.ar    1  UNL1        0.2017
     17 C          62.7639   83.7584   14.3589 C.ar    1  UNL1        0.0843
     18 C          62.3684   82.3308   14.1234 C.ar    1  UNL1        0.2018
     19 O          61.6770   81.5559   15.2057 O.2     1  UNL1       -0.2864
     20 C          62.6643   81.6782   12.8056 C.ar    1  UNL1        0.0735
     21 C          62.2688   80.2506   12.5701 C.ar    1  UNL1        0.0062
     22 C          62.5647   79.5980   11.2523 C.ar    1  UNL1        0.0003
     23 C          63.2561   80.3730   10.1701 C.ar    1  UNL1        0.0031
     24 C          63.6516   81.8006   10.4056 C.ar    1  UNL1        0.0376
     25 C          63.3557   82.4532   11.7234 C.ar    1  UNL1        0.1485
     26 O          63.7512   83.8809   11.9589 O.2     1  UNL1       -0.4487
     27 C          67.2115   91.2224   15.1409 C.3     1  UNL1        0.2526
     28 O          65.8747   90.6019   15.4197 O.3     1  UNL1       -0.4683
     29 O          64.8309   92.7638   13.6207 O.3     1  UNL1       -0.4684
     30 C          65.8822   93.4022   12.7620 C.3     1  UNL1        0.2526
     31 C          60.2991   89.8770    7.5638 C.ar    1  UNL1        0.1045
     32 C          58.8351   89.6836    7.3004 C.ar    1  UNL1        0.0206
     33 C          58.2269   90.2005    6.0304 C.ar    1  UNL1       -0.0026
     34 C          59.0826   90.9108    5.0239 C.ar    1  UNL1       -0.0207
     35 C          60.5466   91.1042    5.2873 C.ar    1  UNL1       -0.0026
     36 C          61.1549   90.5873    6.5573 C.ar    1  UNL1        0.0206
     37 C          58.4744   91.4278    3.7539 C.3     1  UNL1        0.0437
     38 C          58.8580   92.7822    3.2358 C.3     1  UNL1        0.0771
     39 N          59.7239   92.9013    2.0168 N.3     1  UNL1       -0.2683
     40 C          61.2078   92.7133    2.1295 C.3     1  UNL1        0.0771
     41 C          62.0736   92.8324    0.9105 C.3     1  UNL1        0.0434
     42 C          61.4556   93.1396   -0.4213 C.ar    1  UNL1       -0.0233
     43 C          62.3216   93.2587   -1.6403 C.ar    1  UNL1       -0.0030
     44 C          61.7036   93.5658   -2.9721 C.ar    1  UNL1        0.0172
     45 C          60.2198   93.7539   -3.0849 C.ar    1  UNL1        0.0652
     46 C          59.3538   93.6348   -1.8659 C.ar    1  UNL1        0.0143
     47 C          59.9718   93.3276   -0.5341 C.ar    1  UNL1       -0.0086
     48 C          59.1059   93.2085    0.6849 C.3     1  UNL1        0.0989
     49 N          59.6017   94.0610   -4.4168 N.ar    1  UNL1       -0.2864
     50 C          58.1976   93.7368   -4.8330 C.ar    1  UNL1        0.1022
     51 C          58.0075   94.2217   -6.2396 C.ar    1  UNL1        0.1196
     52 N          59.2941   94.8457   -6.6928 N.ar    1  UNL1       -0.2220
     53 C          60.2794   94.7464   -5.5662 C.ar    1  UNL1        0.1828
@<TRIPOS>BOND
     1    27    28    1
     2    28     6    1
     3     6     7   ar
     4     7     8   ar
     5     8    12    1
     6    12    13   am
     7    13    14    2
     8    13    16    1
     9    16    17   ar
    10    17    18   ar
    11    18    19    2
    12    18    20   ar
    13    20    21   ar
    14    21    22   ar
    15    22    23   ar
    16    23    24   ar
    17    24    25   ar
    18    25    26   ar
    19     8     9   ar
    20     9     1    1
    21     1     2   ar
    22     2     3   ar
    23     3     4   ar
    24     4    31    1
    25    31    32   ar
    26    32    33   ar
    27    33    34   ar
    28    34    37    1
    29    37    38    1
    30    38    39    1
    31    39    40    1
    32    40    41    1
    33    41    42    1
    34    42    43   ar
    35    43    44   ar
    36    44    45   ar
    37    45    49    1
    38    49    50   ar
    39    50    51   ar
    40    51    52   ar
    41    52    53   ar
    42    45    46   ar
    43    46    47   ar
    44    47    48    1
    45    34    35   ar
    46    35    36   ar
    47     4     5   ar
    48     9    10   ar
    49    10    11   ar
    50    11    29    1
    51    29    30    1
    52    11     6   ar
    53    26    16   ar
    54     5     1   ar
    55    25    20   ar
    56    36    31   ar
    57    48    39    1
    58    47    42   ar
    59    53    49   ar
    60    12    15    1
@<TRIPOS>MOLECULE
*****
 53 60 0 0 0
SMALL
GASTEIGER

@<TRIPOS>ATOM
      1 C          62.6735   84.2172   10.2411 C.ar    1  UNL1        0.2075
      2 N          63.8608   84.9767    9.7279 N.ar    1  UNL1       -0.1074
      3 N          63.3560   86.1346    8.9188 N.ar    1  UNL1       -0.0406
      4 N          61.8567   86.0906    8.9320 N.ar    1  UNL1       -0.1285
      5 N          61.4348   84.9056    9.7492 N.ar    1  UNL1       -0.1253
      6 C          62.8043   80.5220   12.8060 C.ar    1  UNL1        0.1736
      7 C          62.7804   81.8786   13.4457 C.ar    1  UNL1        0.0548
      8 C          62.7368   83.1103   12.5907 C.ar    1  UNL1        0.0569
      9 C          62.7171   82.9855   11.0961 C.ar    1  UNL1        0.0560
     10 C          62.7409   81.6289   10.4563 C.ar    1  UNL1        0.0444
     11 C          62.7845   80.3972   11.3113 C.ar    1  UNL1        0.1726
     12 N          62.7129   84.4668   13.2304 N.am    1  UNL1       -0.2777
     13 C          63.6993   84.8051   14.3087 C.2     1  UNL1        0.2843
     14 O          64.7095   83.7867   14.7473 O.2     1  UNL1       -0.2665
     15 H          62.0498   85.1352   12.9425 H       1  UNL1        0.1553
     16 C          63.6754   86.1616   14.9483 C.ar    1  UNL1        0.2017
     17 C          63.2291   86.3115   16.3726 C.ar    1  UNL1        0.0843
     18 C          63.2052   87.6680   17.0122 C.ar    1  UNL1        0.2018
     19 O          62.7589   87.8179   18.4364 O.2     1  UNL1       -0.2864
     20 C          63.6276   88.8747   16.2277 C.ar    1  UNL1        0.0735
     21 C          63.6038   90.2312   16.8674 C.ar    1  UNL1        0.0062
     22 C          64.0262   91.4379   16.0828 C.ar    1  UNL1        0.0003
     23 C          64.4725   91.2881   14.6587 C.ar    1  UNL1        0.0031
     24 C          64.4964   89.9316   14.0190 C.ar    1  UNL1        0.0376
     25 C          64.0739   88.7249   14.8035 C.ar    1  UNL1        0.1485
     26 O          64.0978   87.3683   14.1638 O.2     1  UNL1       -0.4487
     27 C          61.7604   79.0330   14.6616 C.3     1  UNL1        0.2526
     28 O          62.8479   79.2903   13.6610 O.3     1  UNL1       -0.4683
     29 O          62.8084   79.0406   10.6717 O.3     1  UNL1       -0.4684
     30 C          63.3185   78.8812    9.2701 C.3     1  UNL1        0.2526
     31 C          60.9401   87.0613    8.2481 C.ar    1  UNL1        0.1045
     32 C          60.9448   88.5069    8.6484 C.ar    1  UNL1        0.0206
     33 C          60.0283   89.4775    7.9645 C.ar    1  UNL1       -0.0026
     34 C          59.1070   89.0025    6.8802 C.ar    1  UNL1       -0.0207
     35 C          59.1023   87.5569    6.4799 C.ar    1  UNL1       -0.0026
     36 C          60.0189   86.5863    7.1638 C.ar    1  UNL1        0.0206
     37 C          58.1904   89.9731    6.1962 C.3     1  UNL1        0.0437
     38 C          58.6445   91.3793    5.9384 C.3     1  UNL1        0.0771
     39 N          59.6562   91.6561    4.8661 N.3     1  UNL1       -0.2683
     40 C          61.0021   90.9960    4.9165 C.3     1  UNL1        0.0771
     41 C          62.0138   91.2728    3.8442 C.3     1  UNL1        0.0434
     42 C          61.6796   92.2098    2.7216 C.ar    1  UNL1       -0.0233
     43 C          62.6914   92.4865    1.6493 C.ar    1  UNL1       -0.0030
     44 C          62.3571   93.4235    0.5266 C.ar    1  UNL1        0.0172
     45 C          61.0112   94.0836    0.4763 C.ar    1  UNL1        0.0652
     46 C          59.9994   93.8068    1.5486 C.ar    1  UNL1        0.0143
     47 C          60.3336   92.8699    2.6712 C.ar    1  UNL1       -0.0086
     48 C          59.3219   92.5931    3.7435 C.3     1  UNL1        0.0989
     49 N          60.6769   95.0206   -0.6464 N.ar    1  UNL1       -0.2864
     50 C          61.4898   96.2051   -1.0779 C.ar    1  UNL1        0.1022
     51 C          60.7864   96.8541   -2.2328 C.ar    1  UNL1        0.1196
     52 N          59.5387   96.0707   -2.5152 N.ar    1  UNL1       -0.2220
     53 C          59.4710   94.9376   -1.5347 C.ar    1  UNL1        0.1828
@<TRIPOS>BOND
     1    27    28    1
     2    28     6    1
     3     6     7   ar
     4     7     8   ar
     5     8    12    1
     6    12    13   am
     7    13    14    2
     8    13    16    1
     9    16    17   ar
    10    17    18   ar
    11    18    19    2
    12    18    20   ar
    13    20    21   ar
    14    21    22   ar
    15    22    23   ar
    16    23    24   ar
    17    24    25   ar
    18    25    26   ar
    19     8     9   ar
    20     9     1    1
    21     1     2   ar
    22     2     3   ar
    23     3     4   ar
    24     4    31    1
    25    31    32   ar
    26    32    33   ar
    27    33    34   ar
    28    34    37    1
    29    37    38    1
    30    38    39    1
    31    39    40    1
    32    40    41    1
    33    41    42    1
    34    42    43   ar
    35    43    44   ar
    36    44    45   ar
    37    45    49    1
    38    49    50   ar
    39    50    51   ar
    40    51    52   ar
    41    52    53   ar
    42    45    46   ar
    43    46    47   ar
    44    47    48    1
    45    34    35   ar
    46    35    36   ar
    47     4     5   ar
    48     9    10   ar
    49    10    11   ar
    50    11    29    1
    51    29    30    1
    52    11     6   ar
    53    26    16   ar
    54     5     1   ar
    55    25    20   ar
    56    36    31   ar
    57    48    39    1
    58    47    42   ar
    59    53    49   ar
    60    12    15    1
@<TRIPOS>MOLECULE
*****
 53 60 0 0 0
SMALL
GASTEIGER

@<TRIPOS>ATOM
      1 C          62.2121   89.3805   10.8050 C.ar    1  UNL1        0.2075
      2 N          61.4301   88.1107   10.6440 N.ar    1  UNL1       -0.1074
      3 N          60.6571   88.2017    9.3617 N.ar    1  UNL1       -0.0406
      4 N          60.9615   89.5278    8.7301 N.ar    1  UNL1       -0.1285
      5 N          61.9226   90.2564    9.6221 N.ar    1  UNL1       -0.1253
      6 C          64.9469   90.3860   14.2343 C.ar    1  UNL1        0.1736
      7 C          64.5456   88.9619   13.9877 C.ar    1  UNL1        0.0548
      8 C          63.6340   88.6268   12.8446 C.ar    1  UNL1        0.0569
      9 C          63.1237   89.7157   11.9481 C.ar    1  UNL1        0.0560
     10 C          63.5251   91.1399   12.1946 C.ar    1  UNL1        0.0444
     11 C          64.4367   91.4750   13.3377 C.ar    1  UNL1        0.1726
     12 N          63.2326   87.2027   12.5981 N.am    1  UNL1       -0.2777
     13 C          63.8037   86.1049   13.4460 C.2     1  UNL1        0.2843
     14 O          64.7761   86.4314   14.5405 O.2     1  UNL1       -0.2665
     15 H          62.5944   86.9884   11.8797 H       1  UNL1        0.1553
     16 C          63.4023   84.6808   13.1995 C.ar    1  UNL1        0.2017
     17 C          62.6589   83.9175   14.2554 C.ar    1  UNL1        0.0843
     18 C          62.2576   82.4934   14.0088 C.ar    1  UNL1        0.2018
     19 O          61.5143   81.7302   15.0647 O.2     1  UNL1       -0.2864
     20 C          62.5995   81.8326   12.7064 C.ar    1  UNL1        0.0735
     21 C          62.1982   80.4085   12.4599 C.ar    1  UNL1        0.0062
     22 C          62.5401   79.7476   11.1574 C.ar    1  UNL1        0.0003
     23 C          63.2834   80.5108   10.1016 C.ar    1  UNL1        0.0031
     24 C          63.6848   81.9349   10.3481 C.ar    1  UNL1        0.0376
     25 C          63.3428   82.5958   11.6505 C.ar    1  UNL1        0.1485
     26 O          63.7443   84.0200   11.8971 O.2     1  UNL1       -0.4487
     27 C          67.2400   91.2396   15.1078 C.3     1  UNL1        0.2526
     28 O          65.8585   90.7212   15.3774 O.3     1  UNL1       -0.4683
     29 O          64.8380   92.8991   13.5842 O.3     1  UNL1       -0.4684
     30 C          65.9576   93.5101   12.7949 C.3     1  UNL1        0.2526
     31 C          60.4030   90.0361    7.4341 C.ar    1  UNL1        0.1045
     32 C          61.3144   90.6542    6.4157 C.ar    1  UNL1        0.0206
     33 C          60.7558   91.1625    5.1197 C.ar    1  UNL1       -0.0026
     34 C          59.2858   91.0528    4.8422 C.ar    1  UNL1       -0.0207
     35 C          58.3744   90.4347    5.8607 C.ar    1  UNL1       -0.0026
     36 C          58.9330   89.9264    7.1566 C.ar    1  UNL1        0.0206
     37 C          58.7271   91.5611    3.5462 C.3     1  UNL1        0.0437
     38 C          59.3050   92.7913    2.9116 C.3     1  UNL1        0.0771
     39 N          59.3147   92.9308    1.4181 N.3     1  UNL1       -0.2683
     40 C          58.0664   92.6605    0.6316 C.3     1  UNL1        0.0771
     41 C          58.0760   92.8001   -0.8619 C.3     1  UNL1        0.0434
     42 C          59.3340   93.2100   -1.5688 C.ar    1  UNL1       -0.0233
     43 C          59.3435   93.3495   -3.0623 C.ar    1  UNL1       -0.0030
     44 C          60.6014   93.7593   -3.7692 C.ar    1  UNL1        0.0172
     45 C          61.8497   94.0296   -2.9826 C.ar    1  UNL1        0.0652
     46 C          61.8401   93.8900   -1.4891 C.ar    1  UNL1        0.0143
     47 C          60.5823   93.4802   -0.7822 C.ar    1  UNL1       -0.0086
     48 C          60.5726   93.3407    0.7112 C.3     1  UNL1        0.0989
     49 N          63.1076   94.4394   -3.6895 N.ar    1  UNL1       -0.2864
     50 C          63.7636   93.7033   -4.8199 C.ar    1  UNL1        0.1022
     51 C          64.9918   94.4663   -5.2191 C.ar    1  UNL1        0.1196
     52 N          65.0949   95.6740   -4.3354 N.ar    1  UNL1       -0.2220
     53 C          63.9305   95.6574   -3.3900 C.ar    1  UNL1        0.1828
@<TRIPOS>BOND
     1    27    28    1
     2    28     6    1
     3     6     7   ar
     4     7     8   ar
     5     8    12    1
     6    12    13   am
     7    13    14    2
     8    13    16    1
     9    16    17   ar
    10    17    18   ar
    11    18    19    2
    12    18    20   ar
    13    20    21   ar
    14    21    22   ar
    15    22    23   ar
    16    23    24   ar
    17    24    25   ar
    18    25    26   ar
    19     8     9   ar
    20     9     1    1
    21     1     2   ar
    22     2     3   ar
    23     3     4   ar
    24     4    31    1
    25    31    32   ar
    26    32    33   ar
    27    33    34   ar
    28    34    37    1
    29    37    38    1
    30    38    39    1
    31    39    40    1
    32    40    41    1
    33    41    42    1
    34    42    43   ar
    35    43    44   ar
    36    44    45   ar
    37    45    49    1
    38    49    50   ar
    39    50    51   ar
    40    51    52   ar
    41    52    53   ar
    42    45    46   ar
    43    46    47   ar
    44    47    48    1
    45    34    35   ar
    46    35    36   ar
    47     4     5   ar
    48     9    10   ar
    49    10    11   ar
    50    11    29    1
    51    29    30    1
    52    11     6   ar
    53    26    16   ar
    54     5     1   ar
    55    25    20   ar
    56    36    31   ar
    57    48    39    1
    58    47    42   ar
    59    53    49   ar
    60    12    15    1
