@<TRIPOS>MOLECULE
*****
 43 46 0 0 0
SMALL
GASTEIGER

@<TRIPOS>ATOM
      1 C          64.0006   89.1357   13.1475 C.ar    1  UNL1        0.0053
      2 C          64.1837   89.0142   14.6313 C.ar    1  UNL1        0.0033
      3 C          63.9725   87.6920   15.3072 C.ar    1  UNL1        0.0382
      4 C          63.5782   86.4911   14.4994 C.ar    1  UNL1        0.1529
      5 C          63.3951   86.6126   13.0156 C.ar    1  UNL1        0.0882
      6 C          63.6063   87.9349   12.3397 C.ar    1  UNL1        0.0181
      7 N          63.0008   85.4118   12.2078 N.am    1  UNL1       -0.2512
      8 C          62.7896   84.0895   12.8838 C.2     1  UNL1        0.2698
      9 O          62.3953   82.8887   12.0759 O.2     1  UNL1       -0.2704
     10 C          62.9727   83.9680   14.3676 C.3     1  UNL1        0.2197
     11 C          63.0252   83.3557   15.7359 C.3     1  UNL1        0.0579
     12 O          63.3670   85.1688   15.1754 O.3     1  UNL1       -0.4686
     13 C          65.0966   91.4909   13.1041 C.ar    1  UNL1        0.0645
     14 N          65.3078   92.8132   12.4281 N.ar    1  UNL1       -0.2183
     15 C          64.6342   93.1026   11.1195 C.ar    1  UNL1        0.2145
     16 N          64.8454   94.4248   10.4435 N.pl3   1  UNL1       -0.3274
     17 N          63.7494   92.0697   10.4868 N.ar    1  UNL1       -0.1995
     18 C          63.5382   90.7473   11.1629 C.ar    1  UNL1        0.1293
     19 N          62.6534   89.7144   10.5302 N.pl3   1  UNL1       -0.3425
     20 C          64.2118   90.4580   12.4715 C.ar    1  UNL1        0.0449
     21 H          65.4261   95.1027   10.8587 H       1  UNL1        0.1452
     22 H          64.4033   94.6148    9.5846 H       1  UNL1        0.1452
     23 H          62.2113   89.9044    9.6713 H       1  UNL1        0.1437
     24 H          62.5148   88.8466   10.9739 H       1  UNL1        0.1437
     25 C          67.1911   91.6274   14.6352 C.3     1  UNL1        0.0067
     26 C          65.7702   91.2015   14.4128 C.3     1  UNL1        0.0460
     27 C          62.5966   82.5546   14.0350 C.ar    1  UNL1        0.0219
     28 C          63.6070   81.6359   13.4144 C.ar    1  UNL1       -0.0005
     29 C          63.2309   80.2224   13.0818 C.ar    1  UNL1       -0.0003
     30 C          61.8445   79.7276   13.3697 C.ar    1  UNL1        0.0038
     31 C          60.8341   80.6463   13.9903 C.ar    1  UNL1        0.0712
     32 C          61.2101   82.0598   14.3229 C.ar    1  UNL1        0.0034
     33 C          59.4476   80.1515   14.2782 C.3     1  UNL1        0.4186
     34 F          58.0611   79.6567   14.5661 F       1  UNL1       -0.1659
     35 F          58.9443   81.5645   14.2830 F       1  UNL1       -0.1659
     36 F          59.9509   78.7384   14.2734 F       1  UNL1       -0.1659
     37 C          62.8176   85.5333   10.7240 C.3     1  UNL1        0.1196
     38 C          61.4369   85.5983   10.1415 C.3     1  UNL1        0.1113
     39 N          60.8921   86.9058    9.6476 N.am    1  UNL1       -0.3026
     40 C          60.1685   86.9690    8.3352 C.2     1  UNL1        0.2230
     41 C          59.6238   88.2763    7.8413 C.3     1  UNL1        0.0946
     42 O          59.9898   85.7247    7.5167 O.2     1  UNL1       -0.2751
     43 H          61.0094   87.7224   10.1849 H       1  UNL1        0.1495
@<TRIPOS>BOND
     1    25    26    1
     2    26    13    1
     3    13    14   ar
     4    14    15   ar
     5    15    16    1
     6    15    17   ar
     7    17    18   ar
     8    18    19    1
     9    18    20   ar
    10    20     1    1
    11     1     2   ar
    12     2     3   ar
    13     3     4   ar
    14     4     5   ar
    15     5     6   ar
    16     5     7    1
    17     7    37    1
    18    37    38    1
    19    38    39    1
    20    39    40   am
    21    40    41    1
    22    40    42    2
    23     7     8   am
    24     8     9    2
    25     8    10    1
    26    10    11    1
    27    10    27    1
    28    27    28   ar
    29    28    29   ar
    30    29    30   ar
    31    30    31   ar
    32    31    33    1
    33    33    34    1
    34    33    35    1
    35    33    36    1
    36    31    32   ar
    37    10    12    1
    38    20    13   ar
    39     6     1   ar
    40    32    27   ar
    41    12     4    1
    42    16    21    1
    43    16    22    1
    44    19    23    1
    45    19    24    1
    46    39    43    1
@<TRIPOS>MOLECULE
*****
 43 46 0 0 0
SMALL
GASTEIGER

@<TRIPOS>ATOM
      1 C          64.3107   89.6076   13.0884 C.ar    1  UNL1        0.0053
      2 C          64.6979   89.3654   14.5171 C.ar    1  UNL1        0.0033
      3 C          64.4863   88.0140   15.1326 C.ar    1  UNL1        0.0382
      4 C          63.8875   86.9049   14.3194 C.ar    1  UNL1        0.1529
      5 C          63.5003   87.1471   12.8907 C.ar    1  UNL1        0.0882
      6 C          63.7119   88.4985   12.2752 C.ar    1  UNL1        0.0181
      7 N          62.9015   86.0380   12.0775 N.am    1  UNL1       -0.2512
      8 C          62.6899   84.6866   12.6930 C.2     1  UNL1        0.2698
      9 O          62.0911   83.5775   11.8798 O.2     1  UNL1       -0.2704
     10 C          63.0771   84.4443   14.1218 C.3     1  UNL1        0.2197
     11 C          63.2809   83.7308   15.4254 C.3     1  UNL1        0.0579
     12 O          63.6759   85.5534   14.9350 O.3     1  UNL1       -0.4686
     13 C          65.3727   91.9773   13.1728 C.ar    1  UNL1        0.0645
     14 N          65.5843   93.3286   12.5573 N.ar    1  UNL1       -0.2183
     15 C          64.9454   93.6619   11.2416 C.ar    1  UNL1        0.2145
     16 N          65.1571   95.0133   10.6261 N.pl3   1  UNL1       -0.3274
     17 N          64.0950   92.6437   10.5415 N.ar    1  UNL1       -0.1995
     18 C          63.8834   91.2923   11.1572 C.ar    1  UNL1        0.1293
     19 N          63.0330   90.2741   10.4571 N.pl3   1  UNL1       -0.3425
     20 C          64.5223   90.9591   12.4727 C.ar    1  UNL1        0.0449
     21 H          65.7152   95.6815   11.0855 H       1  UNL1        0.1452
     22 H          64.7378   95.2320    9.7626 H       1  UNL1        0.1452
     23 H          62.6137   90.4928    9.5936 H       1  UNL1        0.1437
     24 H          62.8941   89.3871   10.8611 H       1  UNL1        0.1437
     25 C          67.4999   91.7438   14.6461 C.3     1  UNL1        0.0067
     26 C          66.0116   91.6440   14.4884 C.3     1  UNL1        0.0460
     27 C          62.5491   83.0874   13.7614 C.ar    1  UNL1        0.0219
     28 C          61.5322   82.4207   14.6397 C.ar    1  UNL1       -0.0005
     29 C          61.0042   81.0637   14.2791 C.ar    1  UNL1       -0.0003
     30 C          61.4931   80.3735   13.0404 C.ar    1  UNL1        0.0038
     31 C          62.5100   81.0402   12.1622 C.ar    1  UNL1        0.0712
     32 C          63.0380   82.3972   12.5226 C.ar    1  UNL1        0.0034
     33 C          62.9988   80.3500   10.9233 C.3     1  UNL1        0.4186
     34 F          63.4877   79.6597    9.6845 F       1  UNL1       -0.1659
     35 F          63.4445   81.6686   10.3644 F       1  UNL1       -0.1659
     36 F          62.5532   79.0312   11.4822 F       1  UNL1       -0.1659
     37 C          62.5143   86.2803   10.6488 C.3     1  UNL1        0.1196
     38 C          61.1473   86.8033   10.3205 C.3     1  UNL1        0.1113
     39 N          60.3246   87.4705   11.3826 N.am    1  UNL1       -0.3026
     40 C          59.8765   88.8906   11.2026 C.2     1  UNL1        0.2230
     41 C          59.0538   89.5579   12.2646 C.3     1  UNL1        0.0946
     42 O          60.2511   89.6435    9.9604 O.2     1  UNL1       -0.2751
     43 H          60.0787   86.9763   12.1978 H       1  UNL1        0.1495
@<TRIPOS>BOND
     1    25    26    1
     2    26    13    1
     3    13    14   ar
     4    14    15   ar
     5    15    16    1
     6    15    17   ar
     7    17    18   ar
     8    18    19    1
     9    18    20   ar
    10    20     1    1
    11     1     2   ar
    12     2     3   ar
    13     3     4   ar
    14     4     5   ar
    15     5     6   ar
    16     5     7    1
    17     7    37    1
    18    37    38    1
    19    38    39    1
    20    39    40   am
    21    40    41    1
    22    40    42    2
    23     7     8   am
    24     8     9    2
    25     8    10    1
    26    10    11    1
    27    10    27    1
    28    27    28   ar
    29    28    29   ar
    30    29    30   ar
    31    30    31   ar
    32    31    33    1
    33    33    34    1
    34    33    35    1
    35    33    36    1
    36    31    32   ar
    37    10    12    1
    38    20    13   ar
    39     6     1   ar
    40    32    27   ar
    41    12     4    1
    42    16    21    1
    43    16    22    1
    44    19    23    1
    45    19    24    1
    46    39    43    1
@<TRIPOS>MOLECULE
*****
 43 46 0 0 0
SMALL
GASTEIGER

@<TRIPOS>ATOM
      1 C          63.9903   89.1525   13.1699 C.ar    1  UNL1        0.0053
      2 C          64.1131   89.0427   14.6608 C.ar    1  UNL1        0.0033
      3 C          63.8799   87.7245   15.3374 C.ar    1  UNL1        0.0382
      4 C          63.5239   86.5160   14.5232 C.ar    1  UNL1        0.1529
      5 C          63.4011   86.6258   13.0323 C.ar    1  UNL1        0.0882
      6 C          63.6343   87.9440   12.3556 C.ar    1  UNL1        0.0181
      7 N          63.0451   85.4174   12.2180 N.am    1  UNL1       -0.2512
      8 C          62.8119   84.0992   12.8947 C.2     1  UNL1        0.2698
      9 O          62.4559   82.8908   12.0804 O.2     1  UNL1       -0.2704
     10 C          62.9347   83.9894   14.3856 C.3     1  UNL1        0.2197
     11 C          62.9338   83.3873   15.7595 C.3     1  UNL1        0.0579
     12 O          63.2907   85.1978   15.1999 O.3     1  UNL1       -0.4686
     13 C          63.4722   90.8143   11.2411 C.ar    1  UNL1        0.0645
     14 N          63.7054   92.1325   10.5644 N.ar    1  UNL1       -0.2183
     15 C          64.6899   93.1072   11.1397 C.ar    1  UNL1        0.2145
     16 N          64.9230   94.4253   10.4630 N.pl3   1  UNL1       -0.3274
     17 N          65.4411   92.7636   12.3917 N.ar    1  UNL1       -0.1995
     18 C          65.2079   91.4453   13.0684 C.ar    1  UNL1        0.1293
     19 N          65.9592   91.1017   14.3204 N.pl3   1  UNL1       -0.3425
     20 C          64.2235   90.4707   12.4931 C.ar    1  UNL1        0.0449
     21 H          64.4299   94.6508    9.6412 H       1  UNL1        0.1452
     22 H          65.5691   95.0650   10.8405 H       1  UNL1        0.1452
     23 H          66.6054   91.7414   14.6980 H       1  UNL1        0.1437
     24 H          65.8062   90.2365   14.7646 H       1  UNL1        0.1437
     25 C          61.0257   90.1745   10.6448 C.3     1  UNL1        0.0067
     26 C          62.4877   89.8396   10.6659 C.3     1  UNL1        0.0460
     27 C          62.5784   82.5719   14.0485 C.ar    1  UNL1        0.0219
     28 C          63.6043   81.6665   13.4339 C.ar    1  UNL1       -0.0005
     29 C          63.2480   80.2490   13.0968 C.ar    1  UNL1       -0.0003
     30 C          61.8658   79.7368   13.3742 C.ar    1  UNL1        0.0038
     31 C          60.8399   80.6422   13.9889 C.ar    1  UNL1        0.0712
     32 C          61.1961   82.0597   14.3260 C.ar    1  UNL1        0.0034
     33 C          59.4576   80.1299   14.2664 C.3     1  UNL1        0.4186
     34 F          58.0753   79.6177   14.5439 F       1  UNL1       -0.1659
     35 F          59.9818   78.7247   14.2843 F       1  UNL1       -0.1659
     36 F          58.9332   81.5352   14.2485 F       1  UNL1       -0.1659
     37 C          62.9223   85.5272   10.7271 C.3     1  UNL1        0.1196
     38 C          61.5688   85.4929   10.0815 C.3     1  UNL1        0.1113
     39 N          60.9180   86.7688    9.6357 N.am    1  UNL1       -0.3026
     40 C          60.1770   86.8172    8.3324 C.2     1  UNL1        0.2230
     41 C          59.5261   88.0930    7.8866 C.3     1  UNL1        0.0946
     42 O          60.0868   85.5897    7.4749 O.2     1  UNL1       -0.2751
     43 H          60.9772   87.5744   10.1985 H       1  UNL1        0.1495
@<TRIPOS>BOND
     1    25    26    1
     2    26    13    1
     3    13    14   ar
     4    14    15   ar
     5    15    16    1
     6    15    17   ar
     7    17    18   ar
     8    18    19    1
     9    18    20   ar
    10    20     1    1
    11     1     2   ar
    12     2     3   ar
    13     3     4   ar
    14     4     5   ar
    15     5     6   ar
    16     5     7    1
    17     7    37    1
    18    37    38    1
    19    38    39    1
    20    39    40   am
    21    40    41    1
    22    40    42    2
    23     7     8   am
    24     8     9    2
    25     8    10    1
    26    10    11    1
    27    10    27    1
    28    27    28   ar
    29    28    29   ar
    30    29    30   ar
    31    30    31   ar
    32    31    33    1
    33    33    34    1
    34    33    35    1
    35    33    36    1
    36    31    32   ar
    37    10    12    1
    38    20    13   ar
    39     6     1   ar
    40    32    27   ar
    41    12     4    1
    42    16    21    1
    43    16    22    1
    44    19    23    1
    45    19    24    1
    46    39    43    1
@<TRIPOS>MOLECULE
*****
 43 46 0 0 0
SMALL
GASTEIGER

@<TRIPOS>ATOM
      1 C          64.2216   89.4229   13.0679 C.ar    1  UNL1        0.0053
      2 C          64.5682   89.1895   14.5085 C.ar    1  UNL1        0.0033
      3 C          64.3516   87.8381   15.1224 C.ar    1  UNL1        0.0382
      4 C          63.7885   86.7203   14.2958 C.ar    1  UNL1        0.1529
      5 C          63.4420   86.9538   12.8552 C.ar    1  UNL1        0.0882
      6 C          63.6585   88.3051   12.2412 C.ar    1  UNL1        0.0181
      7 N          62.8789   85.8359   12.0286 N.am    1  UNL1       -0.2512
      8 C          62.6623   84.4846   12.6425 C.2     1  UNL1        0.2698
      9 O          62.0992   83.3667   11.8159 O.2     1  UNL1       -0.2704
     10 C          63.0088   84.2511   14.0832 C.3     1  UNL1        0.2197
     11 C          63.1806   83.5441   15.3950 C.3     1  UNL1        0.0579
     12 O          63.5720   85.3689   14.9098 O.3     1  UNL1       -0.4686
     13 C          63.7206   91.1478   11.1907 C.ar    1  UNL1        0.0645
     14 N          63.9371   92.4991   10.5766 N.ar    1  UNL1       -0.2183
     15 C          64.8713   93.4770   11.2258 C.ar    1  UNL1        0.2145
     16 N          65.0878   94.8283   10.6117 N.pl3   1  UNL1       -0.3274
     17 N          65.5888   93.1035   12.4889 N.ar    1  UNL1       -0.1995
     18 C          65.3723   91.7521   13.1030 C.ar    1  UNL1        0.1293
     19 N          66.0898   91.3786   14.3661 N.pl3   1  UNL1       -0.3425
     20 C          64.4382   90.7743   12.4538 C.ar    1  UNL1        0.0449
     21 H          64.6168   95.0734    9.7827 H       1  UNL1        0.1452
     22 H          65.7008   95.4700   11.0378 H       1  UNL1        0.1452
     23 H          66.7029   92.0203   14.7922 H       1  UNL1        0.1437
     24 H          65.9477   90.4916   14.7691 H       1  UNL1        0.1437
     25 C          61.3249   90.4888   10.4314 C.3     1  UNL1        0.0067
     26 C          62.7865   90.1700   10.5416 C.3     1  UNL1        0.0460
     27 C          62.5054   82.8877   13.7121 C.ar    1  UNL1        0.0219
     28 C          61.4811   82.2071   14.5709 C.ar    1  UNL1       -0.0005
     29 C          60.9776   80.8437   14.1998 C.ar    1  UNL1       -0.0003
     30 C          61.4984   80.1609   12.9700 C.ar    1  UNL1        0.0038
     31 C          62.5227   80.8416   12.1112 C.ar    1  UNL1        0.0712
     32 C          63.0262   82.2049   12.4822 C.ar    1  UNL1        0.0034
     33 C          63.0435   80.1588   10.8813 C.3     1  UNL1        0.4186
     34 F          63.5643   79.4760    9.6514 F       1  UNL1       -0.1659
     35 F          63.5111   81.4796   10.3460 F       1  UNL1       -0.1659
     36 F          62.5759   78.8378   11.4166 F       1  UNL1       -0.1659
     37 C          62.5323   86.0694   10.5880 C.3     1  UNL1        0.1196
     38 C          61.0966   86.0764   10.1536 C.3     1  UNL1        0.1113
     39 N          60.5260   87.2832    9.4693 N.am    1  UNL1       -0.3026
     40 C          59.9123   87.1528    8.1069 C.2     1  UNL1        0.2230
     41 C          59.3417   88.3595    7.4226 C.3     1  UNL1        0.0946
     42 O          59.8691   85.8155    7.4286 O.2     1  UNL1       -0.2751
     43 H          60.5543   88.1609    9.9145 H       1  UNL1        0.1495
@<TRIPOS>BOND
     1    25    26    1
     2    26    13    1
     3    13    14   ar
     4    14    15   ar
     5    15    16    1
     6    15    17   ar
     7    17    18   ar
     8    18    19    1
     9    18    20   ar
    10    20     1    1
    11     1     2   ar
    12     2     3   ar
    13     3     4   ar
    14     4     5   ar
    15     5     6   ar
    16     5     7    1
    17     7    37    1
    18    37    38    1
    19    38    39    1
    20    39    40   am
    21    40    41    1
    22    40    42    2
    23     7     8   am
    24     8     9    2
    25     8    10    1
    26    10    11    1
    27    10    27    1
    28    27    28   ar
    29    28    29   ar
    30    29    30   ar
    31    30    31   ar
    32    31    33    1
    33    33    34    1
    34    33    35    1
    35    33    36    1
    36    31    32   ar
    37    10    12    1
    38    20    13   ar
    39     6     1   ar
    40    32    27   ar
    41    12     4    1
    42    16    21    1
    43    16    22    1
    44    19    23    1
    45    19    24    1
    46    39    43    1
@<TRIPOS>MOLECULE
*****
 43 46 0 0 0
SMALL
GASTEIGER

@<TRIPOS>ATOM
      1 C          62.4232   86.2028   10.2589 C.ar    1  UNL1        0.0053
      2 C          62.5927   85.2265   11.3850 C.ar    1  UNL1        0.0033
      3 C          63.0222   85.7099   12.7384 C.ar    1  UNL1        0.0382
      4 C          63.2821   87.1696   12.9658 C.ar    1  UNL1        0.1529
      5 C          63.1126   88.1459   11.8397 C.ar    1  UNL1        0.0882
      6 C          62.6831   87.6625   10.4863 C.ar    1  UNL1        0.0181
      7 N          63.3725   89.6056   12.0671 N.am    1  UNL1       -0.2512
      8 C          63.8019   90.0890   13.4205 C.2     1  UNL1        0.2698
      9 O          64.0618   91.5487   13.6479 O.2     1  UNL1       -0.2704
     10 C          63.9715   89.1127   14.5467 C.3     1  UNL1        0.2197
     11 C          64.2669   88.5789   15.9170 C.3     1  UNL1        0.0579
     12 O          63.7115   87.6530   14.3193 O.3     1  UNL1       -0.4686
     13 C          60.7281   86.2388    8.2903 C.ar    1  UNL1        0.0645
     14 N          60.2986   85.7555    6.9368 N.ar    1  UNL1       -0.2183
     15 C          61.1348   84.7527    6.1984 C.ar    1  UNL1        0.2145
     16 N          60.7053   84.2693    4.8449 N.pl3   1  UNL1       -0.3274
     17 N          62.4004   84.2332    6.8135 N.ar    1  UNL1       -0.1995
     18 C          62.8299   84.7166    8.1670 C.ar    1  UNL1        0.1293
     19 N          64.0955   84.1971    8.7821 N.pl3   1  UNL1       -0.3425
     20 C          61.9937   85.7194    8.9054 C.ar    1  UNL1        0.0449
     21 H          59.8746   84.6103    4.4412 H       1  UNL1        0.1452
     22 H          61.2541   83.6111    4.3603 H       1  UNL1        0.1452
     23 H          64.6443   83.5389    8.2975 H       1  UNL1        0.1437
     24 H          64.3774   84.5144    9.6705 H       1  UNL1        0.1437
     25 C          59.7468   88.6358    8.4945 C.3     1  UNL1        0.0067
     26 C          59.8920   87.2417    9.0287 C.3     1  UNL1        0.0460
     27 C          64.3340   90.3870   15.2500 C.ar    1  UNL1        0.0219
     28 C          63.3791   91.0001   16.2309 C.ar    1  UNL1       -0.0005
     29 C          63.7416   92.2744   16.9342 C.ar    1  UNL1       -0.0003
     30 C          65.0589   92.9357   16.6566 C.ar    1  UNL1        0.0038
     31 C          66.0138   92.3227   15.6756 C.ar    1  UNL1        0.0712
     32 C          65.6514   91.0483   14.9723 C.ar    1  UNL1        0.0034
     33 C          67.3313   92.9840   15.3979 C.3     1  UNL1        0.4186
     34 F          68.6487   93.6453   15.1202 F       1  UNL1       -0.1659
     35 F          68.0147   92.0028   16.3034 F       1  UNL1       -0.1659
     36 F          66.6478   93.9653   14.4923 F       1  UNL1       -0.1659
     37 C          63.2029   90.5819   10.9410 C.3     1  UNL1        0.1196
     38 C          64.3984   91.2903   10.3762 C.3     1  UNL1        0.1113
     39 N          64.5514   92.7706   10.5650 N.am    1  UNL1       -0.3026
     40 C          65.8220   93.3264   11.1365 C.2     1  UNL1        0.2230
     41 C          65.9750   94.8066   11.3252 C.3     1  UNL1        0.0946
     42 O          66.9396   92.4020   11.5194 O.2     1  UNL1       -0.2751
     43 H          63.8179   93.3773   10.3137 H       1  UNL1        0.1495
@<TRIPOS>BOND
     1    25    26    1
     2    26    13    1
     3    13    14   ar
     4    14    15   ar
     5    15    16    1
     6    15    17   ar
     7    17    18   ar
     8    18    19    1
     9    18    20   ar
    10    20     1    1
    11     1     2   ar
    12     2     3   ar
    13     3     4   ar
    14     4     5   ar
    15     5     6   ar
    16     5     7    1
    17     7    37    1
    18    37    38    1
    19    38    39    1
    20    39    40   am
    21    40    41    1
    22    40    42    2
    23     7     8   am
    24     8     9    2
    25     8    10    1
    26    10    11    1
    27    10    27    1
    28    27    28   ar
    29    28    29   ar
    30    29    30   ar
    31    30    31   ar
    32    31    33    1
    33    33    34    1
    34    33    35    1
    35    33    36    1
    36    31    32   ar
    37    10    12    1
    38    20    13   ar
    39     6     1   ar
    40    32    27   ar
    41    12     4    1
    42    16    21    1
    43    16    22    1
    44    19    23    1
    45    19    24    1
    46    39    43    1
@<TRIPOS>MOLECULE
*****
 43 46 0 0 0
SMALL
GASTEIGER

@<TRIPOS>ATOM
      1 C          62.3723   86.0955   10.3577 C.ar    1  UNL1        0.0053
      2 C          62.3779   85.1653   11.5344 C.ar    1  UNL1        0.0033
      3 C          62.7737   85.6725   12.8894 C.ar    1  UNL1        0.0382
      4 C          63.1639   87.1099   13.0676 C.ar    1  UNL1        0.1529
      5 C          63.1583   88.0400   11.8909 C.ar    1  UNL1        0.0882
      6 C          62.7624   87.5328   10.5359 C.ar    1  UNL1        0.0181
      7 N          63.5485   89.4774   12.0692 N.am    1  UNL1       -0.2512
      8 C          63.9443   89.9846   13.4241 C.2     1  UNL1        0.2698
      9 O          64.3345   91.4219   13.6024 O.2     1  UNL1       -0.2704
     10 C          63.9500   89.0544   14.6010 C.3     1  UNL1        0.2197
     11 C          64.1105   88.5643   16.0095 C.3     1  UNL1        0.0579
     12 O          63.5598   87.6170   14.4227 O.3     1  UNL1       -0.4686
     13 C          62.8762   84.6428    8.2634 C.ar    1  UNL1        0.0645
     14 N          62.4804   84.1356    6.9084 N.ar    1  UNL1       -0.2183
     15 C          61.1848   84.5740    6.2925 C.ar    1  UNL1        0.2145
     16 N          60.7890   84.0668    4.9375 N.pl3   1  UNL1       -0.3274
     17 N          60.2850   85.5195    7.0317 N.ar    1  UNL1       -0.1995
     18 C          60.6808   86.0267    8.3868 C.ar    1  UNL1        0.1293
     19 N          59.7810   86.9722    9.1259 N.pl3   1  UNL1       -0.3425
     20 C          61.9764   85.5883    9.0026 C.ar    1  UNL1        0.0449
     21 H          61.3795   83.4462    4.4524 H       1  UNL1        0.1452
     22 H          59.9386   84.3545    4.5333 H       1  UNL1        0.1452
     23 H          58.9307   87.2599    8.7217 H       1  UNL1        0.1437
     24 H          60.0408   87.3051   10.0153 H       1  UNL1        0.1437
     25 C          64.1957   83.0445    9.8301 C.3     1  UNL1        0.0067
     26 C          64.1718   84.2045    8.8793 C.3     1  UNL1        0.0460
     27 C          64.3959   90.3215   15.2684 C.ar    1  UNL1        0.0219
     28 C          63.5014   91.0003   16.2629 C.ar    1  UNL1       -0.0005
     29 C          63.9474   92.2675   16.9304 C.ar    1  UNL1       -0.0003
     30 C          65.2877   92.8558   16.6033 C.ar    1  UNL1        0.0038
     31 C          66.1822   92.1771   15.6087 C.ar    1  UNL1        0.0712
     32 C          65.7364   90.9099   14.9412 C.ar    1  UNL1        0.0034
     33 C          67.5227   92.7655   15.2816 C.3     1  UNL1        0.4186
     34 F          68.8632   93.3539   14.9545 F       1  UNL1       -0.1659
     35 F          66.8552   93.8331   14.4664 F       1  UNL1       -0.1659
     36 F          68.1903   91.6979   16.0968 F       1  UNL1       -0.1659
     37 C          63.5428   90.4075   10.8924 C.3     1  UNL1        0.1196
     38 C          62.3244   91.2290   10.5916 C.3     1  UNL1        0.1113
     39 N          61.1095   91.1160   11.4642 N.am    1  UNL1       -0.3026
     40 C          59.9067   90.3610   10.9811 C.2     1  UNL1        0.2230
     41 C          58.6918   90.2480   11.8536 C.3     1  UNL1        0.0946
     42 O          59.9189   89.7190    9.6254 O.2     1  UNL1       -0.2751
     43 H          61.1015   91.5374   12.3539 H       1  UNL1        0.1495
@<TRIPOS>BOND
     1    25    26    1
     2    26    13    1
     3    13    14   ar
     4    14    15   ar
     5    15    16    1
     6    15    17   ar
     7    17    18   ar
     8    18    19    1
     9    18    20   ar
    10    20     1    1
    11     1     2   ar
    12     2     3   ar
    13     3     4   ar
    14     4     5   ar
    15     5     6   ar
    16     5     7    1
    17     7    37    1
    18    37    38    1
    19    38    39    1
    20    39    40   am
    21    40    41    1
    22    40    42    2
    23     7     8   am
    24     8     9    2
    25     8    10    1
    26    10    11    1
    27    10    27    1
    28    27    28   ar
    29    28    29   ar
    30    29    30   ar
    31    30    31   ar
    32    31    33    1
    33    33    34    1
    34    33    35    1
    35    33    36    1
    36    31    32   ar
    37    10    12    1
    38    20    13   ar
    39     6     1   ar
    40    32    27   ar
    41    12     4    1
    42    16    21    1
    43    16    22    1
    44    19    23    1
    45    19    24    1
    46    39    43    1
@<TRIPOS>MOLECULE
*****
 43 46 0 0 0
SMALL
GASTEIGER

@<TRIPOS>ATOM
      1 C          62.3942   85.9793   10.1241 C.ar    1  UNL1        0.0053
      2 C          62.5377   84.9991   11.2503 C.ar    1  UNL1        0.0033
      3 C          62.9710   85.4726   12.6061 C.ar    1  UNL1        0.0382
      4 C          63.2607   86.9264   12.8355 C.ar    1  UNL1        0.1529
      5 C          63.1172   87.9066   11.7093 C.ar    1  UNL1        0.0882
      6 C          62.6839   87.4331   10.3536 C.ar    1  UNL1        0.0181
      7 N          63.4069   89.3603   11.9387 N.am    1  UNL1       -0.2512
      8 C          63.8402   89.8339   13.2944 C.2     1  UNL1        0.2698
      9 O          64.1300   91.2876   13.5239 O.2     1  UNL1       -0.2704
     10 C          63.9838   88.8536   14.4208 C.3     1  UNL1        0.2197
     11 C          64.2614   88.3130   15.7922 C.3     1  UNL1        0.0579
     12 O          63.6940   87.3999   14.1913 O.3     1  UNL1       -0.4686
     13 C          60.6863   86.0190    8.1666 C.ar    1  UNL1        0.0645
     14 N          60.2530   85.5456    6.8109 N.ar    1  UNL1       -0.2183
     15 C          61.0943   84.5589    6.0567 C.ar    1  UNL1        0.2145
     16 N          60.6610   84.0854    4.7010 N.pl3   1  UNL1       -0.3274
     17 N          62.3689   84.0457    6.6584 N.ar    1  UNL1       -0.1995
     18 C          62.8022   84.5192    8.0142 C.ar    1  UNL1        0.1293
     19 N          64.0768   84.0059    8.6159 N.pl3   1  UNL1       -0.3425
     20 C          61.9609   85.5058    8.7683 C.ar    1  UNL1        0.0449
     21 H          59.8244   84.4223    4.3061 H       1  UNL1        0.1452
     22 H          61.2132   83.4378    4.2061 H       1  UNL1        0.1452
     23 H          64.6290   83.3583    8.1209 H       1  UNL1        0.1437
     24 H          64.3612   84.3167    9.5057 H       1  UNL1        0.1437
     25 C          59.3050   88.2188    8.2230 C.3     1  UNL1        0.0067
     26 C          59.8450   87.0058    8.9208 C.3     1  UNL1        0.0460
     27 C          64.3699   90.1196   15.1265 C.ar    1  UNL1        0.0219
     28 C          63.4424   90.7284   16.1360 C.ar    1  UNL1       -0.0005
     29 C          63.8286   91.9945   16.8417 C.ar    1  UNL1       -0.0003
     30 C          65.1422   92.6517   16.5380 C.ar    1  UNL1        0.0038
     31 C          66.0697   92.0429   15.5285 C.ar    1  UNL1        0.0712
     32 C          65.6836   90.7769   14.8227 C.ar    1  UNL1        0.0034
     33 C          67.3834   92.7001   15.2247 C.3     1  UNL1        0.4186
     34 F          68.6971   93.3574   14.9210 F       1  UNL1       -0.1659
     35 F          67.4882   91.9050   13.9572 F       1  UNL1       -0.1659
     36 F          67.2787   93.4953   16.4923 F       1  UNL1       -0.1659
     37 C          63.2634   90.3406   10.8125 C.3     1  UNL1        0.1196
     38 C          61.9885   91.1138   10.6490 C.3     1  UNL1        0.1113
     39 N          60.6755   90.3910   10.5886 N.am    1  UNL1       -0.3026
     40 C          60.0619   89.8441   11.8433 C.2     1  UNL1        0.2230
     41 C          58.7490   89.1214   11.7829 C.3     1  UNL1        0.0946
     42 O          60.7615   90.0200   13.1586 O.2     1  UNL1       -0.2751
     43 H          60.2164   90.2756    9.7253 H       1  UNL1        0.1495
@<TRIPOS>BOND
     1    25    26    1
     2    26    13    1
     3    13    14   ar
     4    14    15   ar
     5    15    16    1
     6    15    17   ar
     7    17    18   ar
     8    18    19    1
     9    18    20   ar
    10    20     1    1
    11     1     2   ar
    12     2     3   ar
    13     3     4   ar
    14     4     5   ar
    15     5     6   ar
    16     5     7    1
    17     7    37    1
    18    37    38    1
    19    38    39    1
    20    39    40   am
    21    40    41    1
    22    40    42    2
    23     7     8   am
    24     8     9    2
    25     8    10    1
    26    10    11    1
    27    10    27    1
    28    27    28   ar
    29    28    29   ar
    30    29    30   ar
    31    30    31   ar
    32    31    33    1
    33    33    34    1
    34    33    35    1
    35    33    36    1
    36    31    32   ar
    37    10    12    1
    38    20    13   ar
    39     6     1   ar
    40    32    27   ar
    41    12     4    1
    42    16    21    1
    43    16    22    1
    44    19    23    1
    45    19    24    1
    46    39    43    1
@<TRIPOS>MOLECULE
*****
 43 46 0 0 0
SMALL
GASTEIGER

@<TRIPOS>ATOM
      1 C          64.3216   89.7399   13.0722 C.ar    1  UNL1        0.0053
      2 C          64.6600   89.5073   14.5149 C.ar    1  UNL1        0.0033
      3 C          64.4296   88.1594   15.1313 C.ar    1  UNL1        0.0382
      4 C          63.8610   87.0441   14.3051 C.ar    1  UNL1        0.1529
      5 C          63.5227   87.2767   12.8624 C.ar    1  UNL1        0.0882
      6 C          63.7530   88.6246   12.2460 C.ar    1  UNL1        0.0181
      7 N          62.9540   86.1613   12.0362 N.am    1  UNL1       -0.2512
      8 C          62.7237   84.8134   12.6526 C.2     1  UNL1        0.2698
      9 O          62.1550   83.6981   11.8263 O.2     1  UNL1       -0.2704
     10 C          63.0620   84.5808   14.0954 C.3     1  UNL1        0.2197
     11 C          63.2222   83.8758   15.4096 C.3     1  UNL1        0.0579
     12 O          63.6306   85.6961   14.9216 O.3     1  UNL1       -0.4686
     13 C          65.4750   92.0675   13.1178 C.ar    1  UNL1        0.0645
     14 N          65.7053   93.4154   12.5013 N.ar    1  UNL1       -0.2183
     15 C          65.0126   93.7837   11.2228 C.ar    1  UNL1        0.2145
     16 N          65.2430   95.1316   10.6063 N.pl3   1  UNL1       -0.3274
     17 N          64.0896   92.8041   10.5607 N.ar    1  UNL1       -0.1995
     18 C          63.8593   91.4561   11.1772 C.ar    1  UNL1        0.1293
     19 N          62.9363   90.4764   10.5152 N.pl3   1  UNL1       -0.3425
     20 C          64.5520   91.0879   12.4557 C.ar    1  UNL1        0.0449
     21 H          65.8488   95.7746   11.0409 H       1  UNL1        0.1452
     22 H          64.7883   95.3734    9.7672 H       1  UNL1        0.1452
     23 H          62.4816   90.7181    9.6761 H       1  UNL1        0.1437
     24 H          62.7851   89.5918   10.9198 H       1  UNL1        0.1437
     25 C          66.3743   92.7340   15.4624 C.3     1  UNL1        0.0067
     26 C          66.1677   91.6992   14.3963 C.3     1  UNL1        0.0460
     27 C          62.5490   83.2207   13.7255 C.ar    1  UNL1        0.0219
     28 C          61.5226   82.5465   14.5869 C.ar    1  UNL1       -0.0005
     29 C          61.0095   81.1863   14.2170 C.ar    1  UNL1       -0.0003
     30 C          61.5229   80.5003   12.9859 C.ar    1  UNL1        0.0038
     31 C          62.5493   81.1745   12.1246 C.ar    1  UNL1        0.0712
     32 C          63.0624   82.5346   12.4943 C.ar    1  UNL1        0.0034
     33 C          63.0627   80.4885   10.8934 C.3     1  UNL1        0.4186
     34 F          63.5761   79.8024    9.6621 F       1  UNL1       -0.1659
     35 F          62.6366   79.1639   11.4537 F       1  UNL1       -0.1659
     36 F          63.4888   81.8130   10.3330 F       1  UNL1       -0.1659
     37 C          62.6157   86.3939   10.5935 C.3     1  UNL1        0.1196
     38 C          61.9638   85.3069    9.7913 C.3     1  UNL1        0.1113
     39 N          62.5312   84.9147    8.4592 N.am    1  UNL1       -0.3026
     40 C          61.6833   85.0099    7.2255 C.2     1  UNL1        0.2230
     41 C          62.2506   84.6177    5.8935 C.3     1  UNL1        0.0946
     42 O          60.2681   85.4974    7.3239 O.2     1  UNL1       -0.2751
     43 H          63.4600   84.5948    8.3947 H       1  UNL1        0.1495
@<TRIPOS>BOND
     1    25    26    1
     2    26    13    1
     3    13    14   ar
     4    14    15   ar
     5    15    16    1
     6    15    17   ar
     7    17    18   ar
     8    18    19    1
     9    18    20   ar
    10    20     1    1
    11     1     2   ar
    12     2     3   ar
    13     3     4   ar
    14     4     5   ar
    15     5     6   ar
    16     5     7    1
    17     7    37    1
    18    37    38    1
    19    38    39    1
    20    39    40   am
    21    40    41    1
    22    40    42    2
    23     7     8   am
    24     8     9    2
    25     8    10    1
    26    10    11    1
    27    10    27    1
    28    27    28   ar
    29    28    29   ar
    30    29    30   ar
    31    30    31   ar
    32    31    33    1
    33    33    34    1
    34    33    35    1
    35    33    36    1
    36    31    32   ar
    37    10    12    1
    38    20    13   ar
    39     6     1   ar
    40    32    27   ar
    41    12     4    1
    42    16    21    1
    43    16    22    1
    44    19    23    1
    45    19    24    1
    46    39    43    1
@<TRIPOS>MOLECULE
*****
 43 46 0 0 0
SMALL
GASTEIGER

@<TRIPOS>ATOM
      1 C          64.9424   90.7122   13.3292 C.ar    1  UNL1        0.0053
      2 C          65.4875   90.4013   14.6917 C.ar    1  UNL1        0.0033
      3 C          65.2833   89.0404   15.2885 C.ar    1  UNL1        0.0382
      4 C          64.5341   87.9904   14.5229 C.ar    1  UNL1        0.1529
      5 C          63.9890   88.3013   13.1605 C.ar    1  UNL1        0.0882
      6 C          64.1932   89.6621   12.5636 C.ar    1  UNL1        0.0181
      7 N          63.2398   87.2512   12.3949 N.am    1  UNL1       -0.2512
      8 C          63.0356   85.8904   12.9917 C.2     1  UNL1        0.2698
      9 O          62.2864   84.8403   12.2261 O.2     1  UNL1       -0.2704
     10 C          63.5807   85.5794   14.3542 C.3     1  UNL1        0.2197
     11 C          63.9046   84.8112   15.6012 C.3     1  UNL1        0.0579
     12 O          64.3299   86.6294   15.1198 O.3     1  UNL1       -0.4686
     13 C          64.7566   92.3333   11.3075 C.ar    1  UNL1        0.0645
     14 N          64.9607   93.6942   10.7106 N.ar    1  UNL1       -0.2183
     15 C          65.5549   94.7949   11.5385 C.ar    1  UNL1        0.2145
     16 N          65.7590   96.1558   10.9416 N.pl3   1  UNL1       -0.3274
     17 N          65.9449   94.5347   12.9633 N.ar    1  UNL1       -0.1995
     18 C          65.7408   93.1737   13.5603 C.ar    1  UNL1        0.1293
     19 N          66.1308   92.9135   14.9851 N.pl3   1  UNL1       -0.3425
     20 C          65.1466   92.0731   12.7323 C.ar    1  UNL1        0.0449
     21 H          65.5030   96.3265   10.0064 H       1  UNL1        0.1452
     22 H          66.1490   96.8782   11.4850 H       1  UNL1        0.1452
     23 H          66.5208   93.6359   15.5285 H       1  UNL1        0.1437
     24 H          65.9968   92.0203   15.3769 H       1  UNL1        0.1437
     25 C          62.7352   91.3218   10.0265 C.3     1  UNL1        0.0067
     26 C          64.1624   91.2326   10.4796 C.3     1  UNL1        0.0460
     27 C          62.9440   84.2627   14.0217 C.ar    1  UNL1        0.0219
     28 C          61.9035   83.6814   14.9324 C.ar    1  UNL1       -0.0005
     29 C          61.2667   82.3646   14.5998 C.ar    1  UNL1       -0.0003
     30 C          61.6705   81.6290   13.3566 C.ar    1  UNL1        0.0038
     31 C          62.7110   82.2102   12.4459 C.ar    1  UNL1        0.0712
     32 C          63.3478   83.5270   12.7783 C.ar    1  UNL1        0.0034
     33 C          63.1148   81.4746   11.2025 C.3     1  UNL1        0.4186
     34 F          63.5186   80.7389    9.9592 F       1  UNL1       -0.1659
     35 F          63.5317   82.7699   10.5715 F       1  UNL1       -0.1659
     36 F          62.6979   80.1792   11.8336 F       1  UNL1       -0.1659
     37 C          62.6948   87.5621   11.0324 C.3     1  UNL1        0.1196
     38 C          61.2156   87.7097   10.8322 C.3     1  UNL1        0.1113
     39 N          60.6121   89.0744   10.6778 N.am    1  UNL1       -0.3026
     40 C          59.6344   89.5815   11.6961 C.2     1  UNL1        0.2230
     41 C          59.0309   90.9461   11.5418 C.3     1  UNL1        0.0946
     42 O          59.2601   88.7241   12.8686 O.2     1  UNL1       -0.2751
     43 H          60.8578   89.6371    9.9083 H       1  UNL1        0.1495
@<TRIPOS>BOND
     1    25    26    1
     2    26    13    1
     3    13    14   ar
     4    14    15   ar
     5    15    16    1
     6    15    17   ar
     7    17    18   ar
     8    18    19    1
     9    18    20   ar
    10    20     1    1
    11     1     2   ar
    12     2     3   ar
    13     3     4   ar
    14     4     5   ar
    15     5     6   ar
    16     5     7    1
    17     7    37    1
    18    37    38    1
    19    38    39    1
    20    39    40   am
    21    40    41    1
    22    40    42    2
    23     7     8   am
    24     8     9    2
    25     8    10    1
    26    10    11    1
    27    10    27    1
    28    27    28   ar
    29    28    29   ar
    30    29    30   ar
    31    30    31   ar
    32    31    33    1
    33    33    34    1
    34    33    35    1
    35    33    36    1
    36    31    32   ar
    37    10    12    1
    38    20    13   ar
    39     6     1   ar
    40    32    27   ar
    41    12     4    1
    42    16    21    1
    43    16    22    1
    44    19    23    1
    45    19    24    1
    46    39    43    1
