@<TRIPOS>MOLECULE
*****
 36 41 0 0 0
SMALL
GASTEIGER

@<TRIPOS>ATOM
      1 C          60.5383   88.8304    9.8070 C.3     1  UNL1        0.1118
      2 C          59.7880   89.8186    8.9640 C.3     1  UNL1        0.1599
      3 O          59.4321   89.4781    7.5472 O.3     1  UNL1       -0.3508
      4 C          59.8263   88.1495    6.9734 C.3     1  UNL1        0.1598
      5 C          60.5766   87.1613    7.8164 C.3     1  UNL1        0.1091
      6 N          60.9326   87.5018    9.2332 N.3     1  UNL1       -0.1532
      7 C          60.8942   89.1709   11.2238 C.3     1  UNL1        0.0507
      8 C          59.5637   88.9622   11.8840 C.3     1  UNL1        0.0044
      9 C          60.7451   89.3979   12.6990 C.3     1  UNL1        0.0044
     10 C          62.3485   89.4980   11.0556 C.3     1  UNL1        0.1880
     11 O          62.9269   89.6592    9.6811 O.3     1  UNL1       -0.3757
     12 H          63.8718   89.8674    9.7503 H       1  UNL1        0.2110
     13 O          63.1815   88.6483   13.3652 O.2     1  UNL1       -0.2723
     14 C          63.2243   89.6637   12.2621 C.2     1  UNL1        0.2526
     15 N          64.1430   90.8450   12.3653 N.am    1  UNL1       -0.2748
     16 C          64.1858   91.8605   11.2621 C.3     1  UNL1        0.1091
     17 C          65.1045   93.0418   11.3654 C.3     1  UNL1        0.0741
     18 C          66.1269   94.0136   11.8757 C.3     1  UNL1        0.0189
     19 C          66.6077   93.5231   13.2090 C.3     1  UNL1        0.0189
     20 C          65.8827   92.2480   13.5230 C.3     1  UNL1        0.0741
     21 C          65.0188   91.0108   13.5717 C.3     1  UNL1        0.1091
     22 N          64.9536   91.9506   12.3834 N.3     1  UNL1       -0.2969
     23 H          63.9911   91.9219   12.7200 H       1  UNL1        0.1233
     24 C          60.9708   85.8327    7.2426 C.3     1  UNL1        0.0189
     25 C          62.0356   84.8719    6.8032 C.3     1  UNL1        0.0015
     26 C          60.5891   84.4923    6.6881 C.3     1  UNL1        0.0015
     27 S          61.6828   86.5136   10.0762 S.O2    1  UNL1        0.0634
     28 O          60.7435   86.0132   10.9067 O.2     1  UNL1       -0.1528
     29 O          62.9455   86.8404    9.3355 O.2     1  UNL1       -0.1528
     30 C          62.4330   85.5254   10.9193 C.ar    1  UNL1        0.1223
     31 C          63.1915   84.4073   10.2679 C.ar    1  UNL1        0.0208
     32 C          63.9417   83.4191   11.1109 C.ar    1  UNL1        0.0128
     33 C          63.9333   83.5490   12.6052 C.ar    1  UNL1        0.0578
     34 CL         64.6835   82.5607   13.4482 Cl      1  UNL1       -0.0822
     35 C          63.1747   84.6671   13.2566 C.ar    1  UNL1        0.0128
     36 C          62.4245   85.6553   12.4136 C.ar    1  UNL1        0.0208
@<TRIPOS>BOND
     1    13    14    2
     2    14    10    1
     3    10    11    1
     4    10     7    1
     5     1     7    1
     6     1     2    1
     7     2     3    1
     8     3     4    1
     9     4     5    1
    10     5    24    1
    11    24    25    1
    12    25    26    1
    13     5     6    1
    14     6    27    1
    15    27    28    2
    16    27    29    2
    17    27    30    1
    18    30    31   ar
    19    31    32   ar
    20    32    33   ar
    21    33    34    1
    22    33    35   ar
    23    35    36   ar
    24     7     8    1
    25     8     9    1
    26    14    15   am
    27    15    16    1
    28    16    17    1
    29    17    18    1
    30    18    19    1
    31    19    20    1
    32    20    21    1
    33    20    22    1
    34     9     7    1
    35    21    15    1
    36     6     1    1
    37    36    30   ar
    38    22    17    1
    39    26    24    1
    40    11    12    1
    41    22    23    1
@<TRIPOS>MOLECULE
*****
 36 41 0 0 0
SMALL
GASTEIGER

@<TRIPOS>ATOM
      1 C          61.9033   95.9384   -0.4389 C.3     1  UNL1        0.1118
      2 C          61.9554   96.8558   -1.6245 C.3     1  UNL1        0.1599
      3 O          60.8397   96.8496   -2.6271 O.3     1  UNL1       -0.3508
      4 C          59.6720   95.9260   -2.4441 C.3     1  UNL1        0.1598
      5 C          59.6200   95.0086   -1.2585 C.3     1  UNL1        0.1091
      6 N          60.7357   95.0148   -0.2559 N.3     1  UNL1       -0.1532
      7 C          63.0190   95.9446    0.5637 C.3     1  UNL1        0.0507
      8 C          62.4123   96.8160    1.6231 C.3     1  UNL1        0.0044
      9 C          63.7894   96.2527    1.8133 C.3     1  UNL1        0.0044
     10 C          64.0133   95.0753   -0.1476 C.3     1  UNL1        0.1880
     11 O          64.3180   93.7025    0.3745 O.3     1  UNL1       -0.3757
     12 H          64.9763   93.2778   -0.1975 H       1  UNL1        0.2110
     13 O          65.4882   96.8557   -1.3326 O.2     1  UNL1       -0.2723
     14 C          64.7027   95.5788   -1.3809 C.2     1  UNL1        0.2526
     15 N          64.6067   94.8053   -2.6625 N.am    1  UNL1       -0.2748
     16 C          63.8211   93.5283   -2.7108 C.3     1  UNL1        0.1091
     17 C          63.7251   92.7548   -3.9924 C.3     1  UNL1        0.0741
     18 C          63.8969   92.3369   -5.4228 C.3     1  UNL1        0.0189
     19 C          64.7485   93.3648   -6.1069 C.3     1  UNL1        0.0189
     20 C          65.1030   94.4182   -5.0995 C.3     1  UNL1        0.0741
     21 C          65.2961   95.3088   -3.8958 C.3     1  UNL1        0.1091
     22 N          64.4705   94.0411   -3.7926 N.3     1  UNL1       -0.2969
     23 H          63.8247   94.7730   -3.4967 H       1  UNL1        0.1233
     24 C          58.4523   94.0851   -1.0755 C.3     1  UNL1        0.0189
     25 C          57.9103   92.7260   -0.7452 C.3     1  UNL1        0.0015
     26 C          56.9718   93.8445   -1.0888 C.3     1  UNL1        0.0015
     27 S          60.6836   94.0974    0.9298 S.O2    1  UNL1        0.0634
     28 O          59.9784   94.7909    1.8485 O.2     1  UNL1       -0.1528
     29 O          61.4782   93.0747    0.1732 O.2     1  UNL1       -0.1528
     30 C          60.6315   93.1801    2.1154 C.ar    1  UNL1        0.1223
     31 C          61.8702   92.4628    2.5636 C.ar    1  UNL1        0.0208
     32 C          61.8182   91.5455    3.7492 C.ar    1  UNL1        0.0128
     33 C          60.5274   91.3455    4.4867 C.ar    1  UNL1        0.0578
     34 CL         60.4754   90.4281    5.6723 Cl      1  UNL1       -0.0822
     35 C          59.2887   92.0627    4.0385 C.ar    1  UNL1        0.0128
     36 C          59.3407   92.9801    2.8528 C.ar    1  UNL1        0.0208
@<TRIPOS>BOND
     1    13    14    2
     2    14    10    1
     3    10    11    1
     4    10     7    1
     5     1     7    1
     6     1     2    1
     7     2     3    1
     8     3     4    1
     9     4     5    1
    10     5    24    1
    11    24    25    1
    12    25    26    1
    13     5     6    1
    14     6    27    1
    15    27    28    2
    16    27    29    2
    17    27    30    1
    18    30    31   ar
    19    31    32   ar
    20    32    33   ar
    21    33    34    1
    22    33    35   ar
    23    35    36   ar
    24     7     8    1
    25     8     9    1
    26    14    15   am
    27    15    16    1
    28    16    17    1
    29    17    18    1
    30    18    19    1
    31    19    20    1
    32    20    21    1
    33    20    22    1
    34     9     7    1
    35    21    15    1
    36     6     1    1
    37    36    30   ar
    38    22    17    1
    39    26    24    1
    40    11    12    1
    41    22    23    1
@<TRIPOS>MOLECULE
*****
 36 41 0 0 0
SMALL
GASTEIGER

@<TRIPOS>ATOM
      1 C          62.1467   94.7671    0.5104 C.3     1  UNL1        0.1118
      2 C          63.1794   94.4328    1.5457 C.3     1  UNL1        0.1599
      3 O          64.4930   93.8396    1.1304 O.3     1  UNL1       -0.3508
      4 C          64.7739   93.5807   -0.3201 C.3     1  UNL1        0.1598
      5 C          63.7412   93.9149   -1.3554 C.3     1  UNL1        0.1091
      6 N          62.4276   94.5082   -0.9401 N.3     1  UNL1       -0.1532
      7 C          60.8331   95.3603    0.9257 C.3     1  UNL1        0.0507
      8 C          61.0659   96.7947    0.5541 C.3     1  UNL1        0.0044
      9 C          59.7588   96.3801    1.1619 C.3     1  UNL1        0.0044
     10 C          60.1439   94.1318    1.4416 C.3     1  UNL1        0.1880
     11 O          59.8951   93.9731    2.9122 O.3     1  UNL1       -0.3757
     12 H          59.4439   93.1300    3.0747 H       1  UNL1        0.2110
     13 O          60.3980   91.7326    0.4778 O.2     1  UNL1       -0.2723
     14 C          59.7036   93.0621    0.4867 C.2     1  UNL1        0.2526
     15 N          58.5689   93.3219   -0.4592 N.am    1  UNL1       -0.2748
     16 C          57.8744   94.6515   -0.4503 C.3     1  UNL1        0.1091
     17 C          56.7396   94.9113   -1.3963 C.3     1  UNL1        0.0741
     18 C          55.7058   94.7303   -2.4679 C.3     1  UNL1        0.0189
     19 C          55.8525   93.3452   -3.0243 C.3     1  UNL1        0.0189
     20 C          56.9770   92.6699   -2.2967 C.3     1  UNL1        0.0741
     21 C          58.1285   92.2522   -1.4141 C.3     1  UNL1        0.1091
     22 N          57.5253   93.6379   -1.2904 N.3     1  UNL1       -0.2969
     23 H          58.5094   93.8210   -1.4868 H       1  UNL1        0.1233
     24 C          64.0222   93.6560   -2.8059 C.3     1  UNL1        0.0189
     25 C          63.9865   92.7390   -3.9924 C.3     1  UNL1        0.0015
     26 C          64.5444   94.1243   -4.1317 C.3     1  UNL1        0.0015
     27 S          61.3949   94.8424   -1.9754 S.O2    1  UNL1        0.0634
     28 O          60.7481   93.6754   -2.1802 O.2     1  UNL1       -0.1528
     29 O          61.8781   96.2622   -1.9989 O.2     1  UNL1       -0.1528
     30 C          60.3622   95.1766   -3.0107 C.ar    1  UNL1        0.1223
     31 C          59.9934   94.1658   -4.0556 C.ar    1  UNL1        0.0208
     32 C          58.9607   94.4999   -5.0910 C.ar    1  UNL1        0.0128
     33 C          58.2968   95.8449   -5.0812 C.ar    1  UNL1        0.0578
     34 CL         57.2641   96.1790   -6.1165 Cl      1  UNL1       -0.0822
     35 C          58.6655   96.8558   -4.0362 C.ar    1  UNL1        0.0128
     36 C          59.6982   96.5217   -3.0009 C.ar    1  UNL1        0.0208
@<TRIPOS>BOND
     1    13    14    2
     2    14    10    1
     3    10    11    1
     4    10     7    1
     5     1     7    1
     6     1     2    1
     7     2     3    1
     8     3     4    1
     9     4     5    1
    10     5    24    1
    11    24    25    1
    12    25    26    1
    13     5     6    1
    14     6    27    1
    15    27    28    2
    16    27    29    2
    17    27    30    1
    18    30    31   ar
    19    31    32   ar
    20    32    33   ar
    21    33    34    1
    22    33    35   ar
    23    35    36   ar
    24     7     8    1
    25     8     9    1
    26    14    15   am
    27    15    16    1
    28    16    17    1
    29    17    18    1
    30    18    19    1
    31    19    20    1
    32    20    21    1
    33    20    22    1
    34     9     7    1
    35    21    15    1
    36     6     1    1
    37    36    30   ar
    38    22    17    1
    39    26    24    1
    40    11    12    1
    41    22    23    1
@<TRIPOS>MOLECULE
*****
 36 41 0 0 0
SMALL
GASTEIGER

@<TRIPOS>ATOM
      1 C          60.2036   95.2315   -0.8968 C.3     1  UNL1        0.1118
      2 C          59.3074   95.4928    0.2773 C.3     1  UNL1        0.1599
      3 O          59.7926   95.2111    1.6685 O.3     1  UNL1       -0.3508
      4 C          61.1739   94.6681    1.8854 C.3     1  UNL1        0.1598
      5 C          62.0701   94.4068    0.7113 C.3     1  UNL1        0.1091
      6 N          61.5849   94.6885   -0.6798 N.3     1  UNL1       -0.1532
      7 C          59.7185   95.5133   -2.2879 C.3     1  UNL1        0.0507
      8 C          60.3471   96.8559   -2.5161 C.3     1  UNL1        0.0044
      9 C          59.5102   96.2274   -3.5905 C.3     1  UNL1        0.0044
     10 C          58.9213   94.2684   -2.5429 C.3     1  UNL1        0.1880
     11 O          59.3126   92.9791   -1.8839 O.3     1  UNL1       -0.3757
     12 H          58.6980   92.2787   -2.1533 H       1  UNL1        0.2110
     13 O          57.8173   93.7079   -4.8269 O.2     1  UNL1       -0.2723
     14 C          57.7329   94.3130   -3.4571 C.2     1  UNL1        0.2526
     15 N          56.4601   94.9627   -3.0012 N.am    1  UNL1       -0.2748
     16 C          56.3757   95.5679   -1.6313 C.3     1  UNL1        0.1091
     17 C          55.1028   96.2177   -1.1755 C.3     1  UNL1        0.0741
     18 C          53.6953   96.7356   -1.1495 C.3     1  UNL1        0.0189
     19 C          53.0580   96.4120   -2.4681 C.3     1  UNL1        0.0189
     20 C          54.0714   95.6940   -3.3092 C.3     1  UNL1        0.0741
     21 C          55.2716   95.0074   -3.9153 C.3     1  UNL1        0.1091
     22 N          55.3353   95.5739   -2.5102 N.3     1  UNL1       -0.2969
     23 H          56.0976   96.0477   -2.9950 H       1  UNL1        0.1233
     24 C          63.4513   93.8637    0.9283 C.3     1  UNL1        0.0189
     25 C          64.9400   94.0326    0.8542 C.3     1  UNL1        0.0015
     26 C          64.3553   92.7545    1.3783 C.3     1  UNL1        0.0015
     27 S          62.4811   94.4272   -1.8540 S.O2    1  UNL1        0.0634
     28 O          62.1438   93.1820   -2.2516 O.2     1  UNL1       -0.1528
     29 O          63.0909   95.7879   -1.6914 O.2     1  UNL1       -0.1528
     30 C          63.3773   94.1658   -3.0281 C.ar    1  UNL1        0.1223
     31 C          64.0359   95.3111   -3.7383 C.ar    1  UNL1        0.0208
     32 C          64.9321   95.0498   -4.9125 C.ar    1  UNL1        0.0128
     33 C          65.1696   93.6432   -5.3763 C.ar    1  UNL1        0.0578
     34 CL         66.0657   93.3819   -6.5505 Cl      1  UNL1       -0.0822
     35 C          64.5109   92.4979   -4.6661 C.ar    1  UNL1        0.0128
     36 C          63.6147   92.7592   -3.4919 C.ar    1  UNL1        0.0208
@<TRIPOS>BOND
     1    13    14    2
     2    14    10    1
     3    10    11    1
     4    10     7    1
     5     1     7    1
     6     1     2    1
     7     2     3    1
     8     3     4    1
     9     4     5    1
    10     5    24    1
    11    24    25    1
    12    25    26    1
    13     5     6    1
    14     6    27    1
    15    27    28    2
    16    27    29    2
    17    27    30    1
    18    30    31   ar
    19    31    32   ar
    20    32    33   ar
    21    33    34    1
    22    33    35   ar
    23    35    36   ar
    24     7     8    1
    25     8     9    1
    26    14    15   am
    27    15    16    1
    28    16    17    1
    29    17    18    1
    30    18    19    1
    31    19    20    1
    32    20    21    1
    33    20    22    1
    34     9     7    1
    35    21    15    1
    36     6     1    1
    37    36    30   ar
    38    22    17    1
    39    26    24    1
    40    11    12    1
    41    22    23    1
@<TRIPOS>MOLECULE
*****
 36 41 0 0 0
SMALL
GASTEIGER

@<TRIPOS>ATOM
      1 C          62.6657   90.5577   11.4288 C.3     1  UNL1        0.1118
      2 C          62.8029   91.3946   10.1916 C.3     1  UNL1        0.1599
      3 O          64.0037   92.2753   10.0113 O.3     1  UNL1       -0.3508
      4 C          65.0672   92.3191   11.0682 C.3     1  UNL1        0.1598
      5 C          64.9299   91.4822   12.3054 C.3     1  UNL1        0.1091
      6 N          63.7291   90.6015   12.4858 N.3     1  UNL1       -0.1532
      7 C          61.4649   89.6770   11.6091 C.3     1  UNL1        0.0507
      8 C          60.6933   90.4895   12.6063 C.3     1  UNL1        0.0044
      9 C          60.1410   89.1848   12.1140 C.3     1  UNL1        0.0044
     10 C          61.8195   88.5585   10.6746 C.3     1  UNL1        0.1880
     11 O          63.1204   87.8297   10.8367 O.3     1  UNL1       -0.3757
     12 H          63.1925   87.1418   10.1566 H       1  UNL1        0.2110
     13 O          59.5895   88.9225    9.3921 O.2     1  UNL1       -0.2723
     14 C          60.8731   88.1690    9.5779 C.2     1  UNL1        0.2526
     15 N          61.2104   87.0259    8.6672 N.am    1  UNL1       -0.2748
     16 C          62.4940   86.2723    8.8530 C.3     1  UNL1        0.1091
     17 C          62.8313   85.1292    7.9422 C.3     1  UNL1        0.0741
     18 C          62.7541   84.1070    6.8471 C.3     1  UNL1        0.0189
     19 C          61.4667   84.3171    6.1068 C.3     1  UNL1        0.0189
     20 C          60.7480   85.4692    6.7441 C.3     1  UNL1        0.0741
     21 C          60.2640   86.6363    7.5705 C.3     1  UNL1        0.1091
     22 N          61.5914   85.9711    7.8785 N.3     1  UNL1       -0.2969
     23 H          61.0749   85.8934    8.7546 H       1  UNL1        0.1233
     24 C          65.9934   91.5261   13.3623 C.3     1  UNL1        0.0189
     25 C          66.3859   91.5550   14.8097 C.3     1  UNL1        0.0015
     26 C          67.4428   91.5731   13.7456 C.3     1  UNL1        0.0015
     27 S          63.5919   89.7646   13.7230 S.O2    1  UNL1        0.0634
     28 O          63.9247   88.5216   13.3150 O.2     1  UNL1       -0.1528
     29 O          63.1766   90.9794   14.4986 O.2     1  UNL1       -0.1528
     30 C          63.4546   88.9277   14.9602 C.ar    1  UNL1        0.1223
     31 C          63.7792   87.4639   14.9152 C.ar    1  UNL1        0.0208
     32 C          63.6420   86.6269   16.1523 C.ar    1  UNL1        0.0128
     33 C          63.1802   87.2537   17.4345 C.ar    1  UNL1        0.0578
     34 CL         63.0430   86.4166   18.6717 Cl      1  UNL1       -0.0822
     35 C          62.8557   88.7174   17.4795 C.ar    1  UNL1        0.0128
     36 C          62.9929   89.5545   16.2424 C.ar    1  UNL1        0.0208
@<TRIPOS>BOND
     1    13    14    2
     2    14    10    1
     3    10    11    1
     4    10     7    1
     5     1     7    1
     6     1     2    1
     7     2     3    1
     8     3     4    1
     9     4     5    1
    10     5    24    1
    11    24    25    1
    12    25    26    1
    13     5     6    1
    14     6    27    1
    15    27    28    2
    16    27    29    2
    17    27    30    1
    18    30    31   ar
    19    31    32   ar
    20    32    33   ar
    21    33    34    1
    22    33    35   ar
    23    35    36   ar
    24     7     8    1
    25     8     9    1
    26    14    15   am
    27    15    16    1
    28    16    17    1
    29    17    18    1
    30    18    19    1
    31    19    20    1
    32    20    21    1
    33    20    22    1
    34     9     7    1
    35    21    15    1
    36     6     1    1
    37    36    30   ar
    38    22    17    1
    39    26    24    1
    40    11    12    1
    41    22    23    1
@<TRIPOS>MOLECULE
*****
 36 41 0 0 0
SMALL
GASTEIGER

@<TRIPOS>ATOM
      1 C          62.8382   95.4502    0.7136 C.3     1  UNL1        0.1118
      2 C          63.9979   95.5623    1.6584 C.3     1  UNL1        0.1599
      3 O          65.3891   95.7260    1.1220 O.3     1  UNL1       -0.3508
      4 C          65.6206   95.7775   -0.3591 C.3     1  UNL1        0.1598
      5 C          64.4609   95.6653   -1.3039 C.3     1  UNL1        0.1091
      6 N          63.0697   95.5017   -0.7675 N.3     1  UNL1       -0.1532
      7 C          61.4470   95.2865    1.2500 C.3     1  UNL1        0.0507
      8 C          61.1074   96.7194    1.5348 C.3     1  UNL1        0.0044
      9 C          60.1056   95.6403    1.8206 C.3     1  UNL1        0.0044
     10 C          61.3034   93.7966    1.1516 C.3     1  UNL1        0.1880
     11 O          60.6346   93.1849   -0.0436 O.3     1  UNL1       -0.3757
     12 H          60.6248   92.2195    0.0501 H       1  UNL1        0.2110
     13 O          63.3003   92.6473    2.3522 O.2     1  UNL1       -0.2723
     14 C          61.8287   92.9184    2.2483 C.2     1  UNL1        0.2526
     15 N          60.8823   92.3113    3.2411 N.am    1  UNL1       -0.2748
     16 C          59.4106   92.5823    3.1372 C.3     1  UNL1        0.1091
     17 C          58.4642   91.9752    4.1301 C.3     1  UNL1        0.0741
     18 C          57.9204   91.1927    5.2885 C.3     1  UNL1        0.0189
     19 C          59.0732   90.5292    5.9817 C.3     1  UNL1        0.0189
     20 C          60.3297   90.9015    5.2517 C.3     1  UNL1        0.0741
     21 C          61.4074   91.4331    4.3379 C.3     1  UNL1        0.1091
     22 N          59.9532   91.7953    4.1073 N.3     1  UNL1       -0.2969
     23 H          60.2367   91.3671    3.2260 H       1  UNL1        0.1233
     24 C          64.6925   95.7169   -2.7849 C.3     1  UNL1        0.0189
     25 C          65.0385   96.4958   -4.0193 C.3     1  UNL1        0.0015
     26 C          64.7477   95.0274   -4.1159 C.3     1  UNL1        0.0015
     27 S          61.9100   95.3895   -1.7122 S.O2    1  UNL1        0.0634
     28 O          61.3328   96.6090   -1.6669 O.2     1  UNL1       -0.1528
     29 O          62.2820   93.9652   -1.9997 O.2     1  UNL1       -0.1528
     30 C          60.7503   95.2775   -2.6570 C.ar    1  UNL1        0.1223
     31 C          59.3990   95.7847   -2.2490 C.ar    1  UNL1        0.0208
     32 C          58.2393   95.6727   -3.1937 C.ar    1  UNL1        0.0128
     33 C          58.4310   95.0534   -4.5464 C.ar    1  UNL1        0.0578
     34 CL         57.2712   94.9414   -5.4911 Cl      1  UNL1       -0.0822
     35 C          59.7823   94.5463   -4.9544 C.ar    1  UNL1        0.0128
     36 C          60.9420   94.6583   -4.0097 C.ar    1  UNL1        0.0208
@<TRIPOS>BOND
     1    13    14    2
     2    14    10    1
     3    10    11    1
     4    10     7    1
     5     1     7    1
     6     1     2    1
     7     2     3    1
     8     3     4    1
     9     4     5    1
    10     5    24    1
    11    24    25    1
    12    25    26    1
    13     5     6    1
    14     6    27    1
    15    27    28    2
    16    27    29    2
    17    27    30    1
    18    30    31   ar
    19    31    32   ar
    20    32    33   ar
    21    33    34    1
    22    33    35   ar
    23    35    36   ar
    24     7     8    1
    25     8     9    1
    26    14    15   am
    27    15    16    1
    28    16    17    1
    29    17    18    1
    30    18    19    1
    31    19    20    1
    32    20    21    1
    33    20    22    1
    34     9     7    1
    35    21    15    1
    36     6     1    1
    37    36    30   ar
    38    22    17    1
    39    26    24    1
    40    11    12    1
    41    22    23    1
@<TRIPOS>MOLECULE
*****
 36 41 0 0 0
SMALL
GASTEIGER

@<TRIPOS>ATOM
      1 C          63.2255   89.9717   13.9394 C.3     1  UNL1        0.1118
      2 C          62.0115   89.4046   13.2651 C.3     1  UNL1        0.1599
      3 O          61.7294   89.7325   11.8288 O.3     1  UNL1       -0.3508
      4 C          62.6613   90.6274   11.0668 C.3     1  UNL1        0.1598
      5 C          63.8753   91.1945   11.7411 C.3     1  UNL1        0.1091
      6 N          64.1574   90.8666   13.1774 N.3     1  UNL1       -0.1532
      7 C          63.5075   89.6438   15.3757 C.3     1  UNL1        0.0507
      8 C          63.1433   90.9498   16.0173 C.3     1  UNL1        0.0044
      9 C          63.6291   89.8091   16.8615 C.3     1  UNL1        0.0044
     10 C          63.9697   88.2239   15.2328 C.3     1  UNL1        0.1880
     11 O          65.2036   87.9132   14.4386 O.3     1  UNL1       -0.3757
     12 H          65.3606   86.9560   14.4464 H       1  UNL1        0.2110
     13 O          62.4748   87.3619   17.1750 O.2     1  UNL1       -0.2723
     14 C          63.1980   87.1149   15.8843 C.2     1  UNL1        0.2526
     15 N          63.1495   85.7588   15.2451 N.am    1  UNL1       -0.2748
     16 C          63.8726   85.5118   13.9543 C.3     1  UNL1        0.1091
     17 C          63.8241   84.1556   13.3150 C.3     1  UNL1        0.0741
     18 C          63.5112   82.7121   13.0536 C.3     1  UNL1        0.0189
     19 C          62.6482   82.2145   14.1748 C.3     1  UNL1        0.0189
     20 C          62.4276   83.3503   15.1294 C.3     1  UNL1        0.0741
     21 C          62.3778   84.6497   15.8965 C.3     1  UNL1        0.1091
     22 N          63.1544   84.5501   14.5979 N.3     1  UNL1       -0.2969
     23 H          63.8541   84.8582   15.2732 H       1  UNL1        0.1233
     24 C          64.8071   92.0894   10.9791 C.3     1  UNL1        0.0189
     25 C          66.1796   92.3905   10.4541 C.3     1  UNL1        0.0015
     26 C          65.0488   93.3382   10.1842 C.3     1  UNL1        0.0015
     27 S          65.3714   91.4337   13.8517 S.O2    1  UNL1        0.0634
     28 O          66.1356   90.3518   14.1122 O.2     1  UNL1       -0.1528
     29 O          64.7989   92.8140   13.7214 O.2     1  UNL1       -0.1528
     30 C          66.5854   92.0007   14.5259 C.ar    1  UNL1        0.1223
     31 C          67.9191   91.9418   13.8422 C.ar    1  UNL1        0.0208
     32 C          69.1332   92.5088   14.5164 C.ar    1  UNL1        0.0128
     33 C          69.0134   93.1347   15.8744 C.ar    1  UNL1        0.0578
     34 CL         70.2275   93.7017   16.5486 Cl      1  UNL1       -0.0822
     35 C          67.6797   93.1936   16.5581 C.ar    1  UNL1        0.0128
     36 C          66.4656   92.6266   15.8839 C.ar    1  UNL1        0.0208
@<TRIPOS>BOND
     1    13    14    2
     2    14    10    1
     3    10    11    1
     4    10     7    1
     5     1     7    1
     6     1     2    1
     7     2     3    1
     8     3     4    1
     9     4     5    1
    10     5    24    1
    11    24    25    1
    12    25    26    1
    13     5     6    1
    14     6    27    1
    15    27    28    2
    16    27    29    2
    17    27    30    1
    18    30    31   ar
    19    31    32   ar
    20    32    33   ar
    21    33    34    1
    22    33    35   ar
    23    35    36   ar
    24     7     8    1
    25     8     9    1
    26    14    15   am
    27    15    16    1
    28    16    17    1
    29    17    18    1
    30    18    19    1
    31    19    20    1
    32    20    21    1
    33    20    22    1
    34     9     7    1
    35    21    15    1
    36     6     1    1
    37    36    30   ar
    38    22    17    1
    39    26    24    1
    40    11    12    1
    41    22    23    1
@<TRIPOS>MOLECULE
*****
 36 41 0 0 0
SMALL
GASTEIGER

@<TRIPOS>ATOM
      1 C          63.7284   90.8108   13.3387 C.3     1  UNL1        0.1118
      2 C          63.0194   90.1277   14.4703 C.3     1  UNL1        0.1599
      3 O          63.4869   90.3324   15.8808 O.3     1  UNL1       -0.3508
      4 C          64.6634   91.2201   16.1596 C.3     1  UNL1        0.1598
      5 C          65.3724   91.9032   15.0279 C.3     1  UNL1        0.1091
      6 N          64.9048   91.6986   13.6174 N.3     1  UNL1       -0.1532
      7 C          63.2608   90.6061   11.9282 C.3     1  UNL1        0.0507
      8 C          63.6204   91.9377   11.3387 C.3     1  UNL1        0.0044
      9 C          62.9745   90.8886   10.4831 C.3     1  UNL1        0.0044
     10 C          62.7388   89.2034   12.0277 C.3     1  UNL1        0.1880
     11 O          63.5860   88.1299   12.6439 O.3     1  UNL1       -0.3757
     12 H          63.1029   87.2888   12.6299 H       1  UNL1        0.2110
     13 O          60.1597   89.4942   12.1448 O.2     1  UNL1       -0.2723
     14 C          61.3696   88.8742   11.5110 C.2     1  UNL1        0.2526
     15 N          61.2104   87.9251   10.3605 N.am    1  UNL1       -0.2748
     16 C          62.4204   87.3051    9.7266 C.3     1  UNL1        0.1091
     17 C          62.2611   86.3559    8.5760 C.3     1  UNL1        0.0741
     18 C          61.6494   85.5051    7.5027 C.3     1  UNL1        0.0189
     19 C          60.1605   85.6730    7.5704 C.3     1  UNL1        0.0189
     20 C          59.8517   86.6275    8.6855 C.3     1  UNL1        0.0741
     21 C          59.8413   87.5959    9.8437 C.3     1  UNL1        0.1091
     22 N          61.1500   87.0496    9.3070 N.3     1  UNL1       -0.2969
     23 H          61.1648   86.7841   10.2918 H       1  UNL1        0.1233
     24 C          66.5488   92.7910   15.3068 C.3     1  UNL1        0.0189
     25 C          67.4247   93.9461   14.9215 C.3     1  UNL1        0.0015
     26 C          67.7107   93.1735   16.1749 C.3     1  UNL1        0.0015
     27 S          65.6138   92.3817   12.4857 S.O2    1  UNL1        0.0634
     28 O          64.9585   93.5541   12.3500 O.2     1  UNL1       -0.1528
     29 O          66.5410   91.2095   12.3590 O.2     1  UNL1       -0.1528
     30 C          66.3227   93.0649   11.3541 C.ar    1  UNL1        0.1223
     31 C          67.2586   92.2873   10.4769 C.ar    1  UNL1        0.0208
     32 C          67.9675   92.9704    9.3452 C.ar    1  UNL1        0.0128
     33 C          67.7406   94.4311    9.0908 C.ar    1  UNL1        0.0578
     34 CL         68.4496   95.1143    7.9590 Cl      1  UNL1       -0.0822
     35 C          66.8048   95.2087    9.9679 C.ar    1  UNL1        0.0128
     36 C          66.0958   94.5256   11.0996 C.ar    1  UNL1        0.0208
@<TRIPOS>BOND
     1    13    14    2
     2    14    10    1
     3    10    11    1
     4    10     7    1
     5     1     7    1
     6     1     2    1
     7     2     3    1
     8     3     4    1
     9     4     5    1
    10     5    24    1
    11    24    25    1
    12    25    26    1
    13     5     6    1
    14     6    27    1
    15    27    28    2
    16    27    29    2
    17    27    30    1
    18    30    31   ar
    19    31    32   ar
    20    32    33   ar
    21    33    34    1
    22    33    35   ar
    23    35    36   ar
    24     7     8    1
    25     8     9    1
    26    14    15   am
    27    15    16    1
    28    16    17    1
    29    17    18    1
    30    18    19    1
    31    19    20    1
    32    20    21    1
    33    20    22    1
    34     9     7    1
    35    21    15    1
    36     6     1    1
    37    36    30   ar
    38    22    17    1
    39    26    24    1
    40    11    12    1
    41    22    23    1
@<TRIPOS>MOLECULE
*****
 36 41 0 0 0
SMALL
GASTEIGER

@<TRIPOS>ATOM
      1 C          63.0924   88.7659   12.3392 C.3     1  UNL1        0.1118
      2 C          63.1550   90.1701   11.8151 C.3     1  UNL1        0.1599
      3 O          62.7308   90.4645   10.4068 O.3     1  UNL1       -0.3508
      4 C          62.2440   89.3549    9.5226 C.3     1  UNL1        0.1598
      5 C          62.1815   87.9508   10.0467 C.3     1  UNL1        0.1091
      6 N          62.6057   87.6564   11.4550 N.3     1  UNL1       -0.1532
      7 C          63.5166   88.4715   13.7475 C.3     1  UNL1        0.0507
      8 C          64.4095   87.2901   13.5090 C.3     1  UNL1        0.0044
      9 C          64.1998   87.8022   14.9031 C.3     1  UNL1        0.0044
     10 C          62.7710   89.5506   14.4752 C.3     1  UNL1        0.1880
     11 O          61.3469   89.8527   14.1141 O.3     1  UNL1       -0.3757
     12 H          61.0163   90.5712   14.6757 H       1  UNL1        0.2110
     13 O          62.9680   90.2123   16.9799 O.2     1  UNL1       -0.2723
     14 C          63.4497   90.3278   15.5641 C.2     1  UNL1        0.2526
     15 N          64.6100   91.2203   15.2370 N.am    1  UNL1       -0.2748
     16 C          65.0917   91.3358   13.8211 C.3     1  UNL1        0.1091
     17 C          66.2520   92.2284   13.4940 C.3     1  UNL1        0.0741
     18 C          67.3907   93.1953   13.6299 C.3     1  UNL1        0.0189
     19 C          67.5044   93.5773   15.0759 C.3     1  UNL1        0.0189
     20 C          66.4360   92.8465   15.8339 C.3     1  UNL1        0.0741
     21 C          65.2886   91.9974   16.3257 C.3     1  UNL1        0.1091
     22 N          65.6620   92.0128   14.8562 N.3     1  UNL1       -0.2969
     23 H          64.6824   92.2972   14.8580 H       1  UNL1        0.1233
     24 C          61.6947   86.8413    9.1624 C.3     1  UNL1        0.0189
     25 C          61.9817   85.6663    8.2753 C.3     1  UNL1        0.0015
     26 C          60.5647   86.0945    8.5179 C.3     1  UNL1        0.0015
     27 S          62.5431   86.2523   11.9790 S.O2    1  UNL1        0.0634
     28 O          63.7458   85.7299   11.6580 O.2     1  UNL1       -0.1528
     29 O          61.1503   86.5003   12.4773 O.2     1  UNL1       -0.1528
     30 C          62.4806   84.8482   12.5030 C.ar    1  UNL1        0.1223
     31 C          62.5672   83.6893   11.5547 C.ar    1  UNL1        0.0208
     32 C          62.5048   82.2852   12.0786 C.ar    1  UNL1        0.0128
     33 C          62.3556   82.0400   13.5509 C.ar    1  UNL1        0.0578
     34 CL         62.2931   80.6358   14.0748 Cl      1  UNL1       -0.0822
     35 C          62.2690   83.1988   14.4993 C.ar    1  UNL1        0.0128
     36 C          62.3315   84.6030   13.9753 C.ar    1  UNL1        0.0208
@<TRIPOS>BOND
     1    13    14    2
     2    14    10    1
     3    10    11    1
     4    10     7    1
     5     1     7    1
     6     1     2    1
     7     2     3    1
     8     3     4    1
     9     4     5    1
    10     5    24    1
    11    24    25    1
    12    25    26    1
    13     5     6    1
    14     6    27    1
    15    27    28    2
    16    27    29    2
    17    27    30    1
    18    30    31   ar
    19    31    32   ar
    20    32    33   ar
    21    33    34    1
    22    33    35   ar
    23    35    36   ar
    24     7     8    1
    25     8     9    1
    26    14    15   am
    27    15    16    1
    28    16    17    1
    29    17    18    1
    30    18    19    1
    31    19    20    1
    32    20    21    1
    33    20    22    1
    34     9     7    1
    35    21    15    1
    36     6     1    1
    37    36    30   ar
    38    22    17    1
    39    26    24    1
    40    11    12    1
    41    22    23    1
