@<TRIPOS>MOLECULE
*****
 27 29 0 0 0
SMALL
GASTEIGER

@<TRIPOS>ATOM
      1 C          65.8475   91.7213   13.8478 C.3     1  UNL1        0.0383
      2 C          65.3376   91.4825   15.2381 C.3     1  UNL1        0.0075
      3 C          64.0731   90.7039   15.4498 C.3     1  UNL1        0.0219
      4 C          63.3185   90.1642   14.2711 C.3     1  UNL1        0.0950
      5 N          63.8283   90.4030   12.8808 N.am    1  UNL1       -0.2637
      6 C          63.0737   89.8632   11.7021 C.2     1  UNL1        0.3077
      7 O          63.5836   90.1021   10.3119 O.2     1  UNL1       -0.2522
      8 N          61.8092   89.0847   11.9138 N.am    1  UNL1       -0.2681
      9 C          65.0928   91.1815   12.6691 C.3     1  UNL1        0.0989
     10 H          61.4745   88.9279   12.8263 H       1  UNL1        0.1564
     11 C          61.0546   88.5449   10.7352 C.ar    1  UNL1        0.0516
     12 C          60.3935   89.4867    9.7728 C.ar    1  UNL1        0.0156
     13 C          59.6389   88.9471    8.5941 C.ar    1  UNL1        0.0127
     14 C          59.5454   87.4657    8.3777 C.ar    1  UNL1        0.0578
     15 CL         58.7908   86.9261    7.1990 Cl      1  UNL1       -0.0822
     16 C          60.2065   86.5240    9.3401 C.ar    1  UNL1        0.0127
     17 C          60.9611   87.0636   10.5188 C.ar    1  UNL1        0.0156
     18 C          66.9071   92.4294   14.6390 C.ar    1  UNL1       -0.0212
     19 C          67.8490   91.6439   15.5025 C.ar    1  UNL1       -0.0042
     20 C          68.9085   92.3521   16.2937 C.ar    1  UNL1       -0.0003
     21 C          69.0260   93.8457   16.2213 C.ar    1  UNL1       -0.0000
     22 C          68.0841   94.6312   15.3579 C.ar    1  UNL1       -0.0003
     23 C          67.0246   93.9231   14.5667 C.ar    1  UNL1       -0.0042
     24 C          66.7254   92.2060   12.7322 C.3     1  UNL1        0.0219
     25 C          66.1112   92.7262   11.4665 C.3     1  UNL1        0.1058
     26 N          67.6859   94.5418    9.6710 N.1     1  UNL1       -0.1959
     27 C          66.8986   93.6340   10.5687 C.1     1  UNL1        0.0732
@<TRIPOS>BOND
     1    26    27    3
     2    27    25    1
     3    25    24    1
     4    24     1    1
     5     1    18    1
     6    18    19   ar
     7    19    20   ar
     8    20    21   ar
     9    21    22   ar
    10    22    23   ar
    11     1     2    1
    12     2     3    1
    13     3     4    1
    14     4     5    1
    15     5     6   am
    16     6     7    2
    17     6     8   am
    18     8    11    1
    19    11    12   ar
    20    12    13   ar
    21    13    14   ar
    22    14    15    1
    23    14    16   ar
    24    16    17   ar
    25     5     9    1
    26     9     1    1
    27    23    18   ar
    28    17    11   ar
    29     8    10    1
@<TRIPOS>MOLECULE
*****
 27 29 0 0 0
SMALL
GASTEIGER

@<TRIPOS>ATOM
      1 C          63.0230   84.3083   13.3106 C.3     1  UNL1        0.0383
      2 C          62.1455   84.3011   12.0942 C.3     1  UNL1        0.0075
      3 C          61.9373   85.5641   11.3121 C.3     1  UNL1        0.0219
      4 C          62.6067   86.8342   11.7466 C.3     1  UNL1        0.0950
      5 N          63.4843   86.8414   12.9630 N.am    1  UNL1       -0.2637
      6 C          64.1537   88.1115   13.3975 C.2     1  UNL1        0.3077
      7 O          65.0312   88.1186   14.6139 O.2     1  UNL1       -0.2522
      8 N          63.9455   89.3744   12.6154 N.am    1  UNL1       -0.2681
      9 C          63.6924   85.5784   13.7451 C.3     1  UNL1        0.0989
     10 H          63.3695   89.3698   11.8170 H       1  UNL1        0.1564
     11 C          64.6149   90.6445   13.0499 C.ar    1  UNL1        0.0516
     12 C          64.8998   91.7231   12.0471 C.ar    1  UNL1        0.0156
     13 C          65.5692   92.9931   12.4815 C.ar    1  UNL1        0.0127
     14 C          65.9538   93.1847   13.9187 C.ar    1  UNL1        0.0578
     15 CL         66.6233   94.4548   14.3531 Cl      1  UNL1       -0.0822
     16 C          65.6690   92.1061   14.9214 C.ar    1  UNL1        0.0127
     17 C          64.9995   90.8360   14.4870 C.ar    1  UNL1        0.0156
     18 C          62.6084   82.8668   13.2971 C.ar    1  UNL1       -0.0212
     19 C          61.6468   82.3532   14.3274 C.ar    1  UNL1       -0.0042
     20 C          61.2322   80.9117   14.3138 C.ar    1  UNL1       -0.0003
     21 C          61.7792   79.9838   13.2698 C.ar    1  UNL1       -0.0000
     22 C          62.7407   80.4974   12.2395 C.ar    1  UNL1       -0.0003
     23 C          63.1553   81.9388   12.2531 C.ar    1  UNL1       -0.0042
     24 C          63.7566   83.8148   14.5224 C.3     1  UNL1        0.0219
     25 C          64.0456   84.7518   15.6575 C.3     1  UNL1        0.1058
     26 N          61.7858   85.9654   17.2132 N.1     1  UNL1       -0.1959
     27 C          62.9156   85.3586   16.4354 C.1     1  UNL1        0.0732
@<TRIPOS>BOND
     1    26    27    3
     2    27    25    1
     3    25    24    1
     4    24     1    1
     5     1    18    1
     6    18    19   ar
     7    19    20   ar
     8    20    21   ar
     9    21    22   ar
    10    22    23   ar
    11     1     2    1
    12     2     3    1
    13     3     4    1
    14     4     5    1
    15     5     6   am
    16     6     7    2
    17     6     8   am
    18     8    11    1
    19    11    12   ar
    20    12    13   ar
    21    13    14   ar
    22    14    15    1
    23    14    16   ar
    24    16    17   ar
    25     5     9    1
    26     9     1    1
    27    23    18   ar
    28    17    11   ar
    29     8    10    1
@<TRIPOS>MOLECULE
*****
 27 29 0 0 0
SMALL
GASTEIGER

@<TRIPOS>ATOM
      1 C          63.0415   84.2710   13.5392 C.3     1  UNL1        0.0383
      2 C          63.3095   83.8598   14.9566 C.3     1  UNL1        0.0075
      3 C          63.8850   84.8474   15.9280 C.3     1  UNL1        0.0219
      4 C          64.1925   86.2462   15.4819 C.3     1  UNL1        0.0950
      5 N          63.9245   86.6574   14.0646 N.am    1  UNL1       -0.2637
      6 C          64.2320   88.0561   13.6185 C.2     1  UNL1        0.3077
      7 O          63.9640   88.4673   12.2011 O.2     1  UNL1       -0.2522
      8 N          64.8075   89.0437   14.5899 N.am    1  UNL1       -0.2681
      9 C          63.3490   85.6698   13.0932 C.3     1  UNL1        0.0989
     10 H          64.9834   88.7738   15.5202 H       1  UNL1        0.1564
     11 C          65.1149   90.4424   14.1438 C.ar    1  UNL1        0.0516
     12 C          66.0189   91.3107   14.9678 C.ar    1  UNL1        0.0156
     13 C          66.3264   92.7094   14.5217 C.ar    1  UNL1        0.0127
     14 C          65.7299   93.2398   13.2517 C.ar    1  UNL1        0.0578
     15 CL         66.0375   94.6386   12.8056 Cl      1  UNL1       -0.0822
     16 C          64.8260   92.3715   12.4277 C.ar    1  UNL1        0.0127
     17 C          64.5185   90.9728   12.8738 C.ar    1  UNL1        0.0156
     18 C          62.5860   82.8428   13.4866 C.ar    1  UNL1       -0.0212
     19 C          63.2163   81.8899   12.5147 C.ar    1  UNL1       -0.0042
     20 C          62.7607   80.4617   12.4622 C.ar    1  UNL1       -0.0003
     21 C          61.6749   79.9865   13.3815 C.ar    1  UNL1       -0.0000
     22 C          61.0447   80.9394   14.3534 C.ar    1  UNL1       -0.0003
     23 C          61.5002   82.3676   14.4060 C.ar    1  UNL1       -0.0042
     24 C          62.6153   84.1862   12.1035 C.3     1  UNL1        0.0219
     25 C          62.2060   85.4278   11.3681 C.3     1  UNL1        0.1058
     26 N          62.6483   85.6324    8.4080 N.1     1  UNL1       -0.1959
     27 C          62.4271   85.5301    9.8880 C.1     1  UNL1        0.0732
@<TRIPOS>BOND
     1    26    27    3
     2    27    25    1
     3    25    24    1
     4    24     1    1
     5     1    18    1
     6    18    19   ar
     7    19    20   ar
     8    20    21   ar
     9    21    22   ar
    10    22    23   ar
    11     1     2    1
    12     2     3    1
    13     3     4    1
    14     4     5    1
    15     5     6   am
    16     6     7    2
    17     6     8   am
    18     8    11    1
    19    11    12   ar
    20    12    13   ar
    21    13    14   ar
    22    14    15    1
    23    14    16   ar
    24    16    17   ar
    25     5     9    1
    26     9     1    1
    27    23    18   ar
    28    17    11   ar
    29     8    10    1
@<TRIPOS>MOLECULE
*****
 27 29 0 0 0
SMALL
GASTEIGER

@<TRIPOS>ATOM
      1 C          63.9288   87.9499   14.6872 C.3     1  UNL1        0.0383
      2 C          63.7879   87.7139   16.1617 C.3     1  UNL1        0.0075
      3 C          63.5208   86.3310   16.6778 C.3     1  UNL1        0.0219
      4 C          63.3947   85.1841   15.7193 C.3     1  UNL1        0.0950
      5 N          63.5357   85.4201   14.2447 N.am    1  UNL1       -0.2637
      6 C          63.4096   84.2732   13.2862 C.2     1  UNL1        0.3077
      7 O          63.5505   84.5093   11.8116 O.2     1  UNL1       -0.2522
      8 N          63.1425   82.8903   13.8023 N.am    1  UNL1       -0.2681
      9 C          63.8027   86.8030   13.7286 C.3     1  UNL1        0.0989
     10 H          63.0500   82.7354   14.7701 H       1  UNL1        0.1564
     11 C          63.0164   81.7435   12.8437 C.ar    1  UNL1        0.0516
     12 C          62.5841   80.3955   13.3398 C.ar    1  UNL1        0.0156
     13 C          62.4580   79.2487   12.3813 C.ar    1  UNL1        0.0127
     14 C          62.7642   79.4498   10.9267 C.ar    1  UNL1        0.0578
     15 CL         62.6381   78.3029    9.9681 Cl      1  UNL1       -0.0822
     16 C          63.1964   80.7977   10.4306 C.ar    1  UNL1        0.0127
     17 C          63.3225   81.9446   11.3891 C.ar    1  UNL1        0.0156
     18 C          64.1279   89.3473   15.1948 C.ar    1  UNL1       -0.0212
     19 C          63.2831   89.8633   16.3217 C.ar    1  UNL1       -0.0042
     20 C          63.4822   91.2607   16.8293 C.ar    1  UNL1       -0.0003
     21 C          64.5261   92.1420   16.2099 C.ar    1  UNL1       -0.0000
     22 C          65.3709   91.6260   15.0830 C.ar    1  UNL1       -0.0003
     23 C          65.1718   90.2286   14.5755 C.ar    1  UNL1       -0.0042
     24 C          64.1389   88.6712   13.3889 C.3     1  UNL1        0.0219
     25 C          63.1467   88.5148   12.2749 C.3     1  UNL1        0.1058
     26 N          62.3954   90.8820   10.5921 N.1     1  UNL1       -0.1959
     27 C          62.7710   89.6984   11.4335 C.1     1  UNL1        0.0732
@<TRIPOS>BOND
     1    26    27    3
     2    27    25    1
     3    25    24    1
     4    24     1    1
     5     1    18    1
     6    18    19   ar
     7    19    20   ar
     8    20    21   ar
     9    21    22   ar
    10    22    23   ar
    11     1     2    1
    12     2     3    1
    13     3     4    1
    14     4     5    1
    15     5     6   am
    16     6     7    2
    17     6     8   am
    18     8    11    1
    19    11    12   ar
    20    12    13   ar
    21    13    14   ar
    22    14    15    1
    23    14    16   ar
    24    16    17   ar
    25     5     9    1
    26     9     1    1
    27    23    18   ar
    28    17    11   ar
    29     8    10    1
@<TRIPOS>MOLECULE
*****
 27 29 0 0 0
SMALL
GASTEIGER

@<TRIPOS>ATOM
      1 C          65.8268   93.1380   11.7962 C.3     1  UNL1        0.0383
      2 C          66.4778   93.9827   12.8509 C.3     1  UNL1        0.0075
      3 C          66.5145   93.5095   14.2738 C.3     1  UNL1        0.0219
      4 C          65.9003   92.1914   14.6419 C.3     1  UNL1        0.0950
      5 N          65.2493   91.3467   13.5872 N.am    1  UNL1       -0.2637
      6 C          64.6351   90.0286   13.9553 C.2     1  UNL1        0.3077
      7 O          63.9842   89.1839   12.9005 O.2     1  UNL1       -0.2522
      8 N          64.6719   89.5554   15.3783 N.am    1  UNL1       -0.2681
      9 C          65.2126   91.8199   12.1643 C.3     1  UNL1        0.0989
     10 H          65.0991   90.1098   16.0706 H       1  UNL1        0.1564
     11 C          64.0577   88.2373   15.7463 C.ar    1  UNL1        0.0516
     12 C          64.4089   87.0032   14.9693 C.ar    1  UNL1        0.0156
     13 C          63.7948   85.6852   15.3373 C.ar    1  UNL1        0.0127
     14 C          62.8293   85.6012   16.4822 C.ar    1  UNL1        0.0578
     15 CL         62.2151   84.2830   16.8502 Cl      1  UNL1       -0.0822
     16 C          62.4780   86.8352   17.2592 C.ar    1  UNL1        0.0127
     17 C          63.0923   88.1533   16.8912 C.ar    1  UNL1        0.0156
     18 C          66.2682   94.3032   10.9609 C.ar    1  UNL1       -0.0212
     19 C          65.8080   95.6890   11.3041 C.ar    1  UNL1       -0.0042
     20 C          66.2494   96.8541   10.4688 C.ar    1  UNL1       -0.0003
     21 C          67.1509   96.6334    9.2905 C.ar    1  UNL1       -0.0000
     22 C          67.6110   95.2476    8.9473 C.ar    1  UNL1       -0.0003
     23 C          67.1697   94.0825    9.7825 C.ar    1  UNL1       -0.0042
     24 C          65.3291   92.6978   10.4513 C.3     1  UNL1        0.0219
     25 C          63.8567   92.5440   10.2100 C.3     1  UNL1        0.1058
     26 N          62.6478   89.8059   10.0072 N.1     1  UNL1       -0.1959
     27 C          63.2522   91.1749   10.1086 C.1     1  UNL1        0.0732
@<TRIPOS>BOND
     1    26    27    3
     2    27    25    1
     3    25    24    1
     4    24     1    1
     5     1    18    1
     6    18    19   ar
     7    19    20   ar
     8    20    21   ar
     9    21    22   ar
    10    22    23   ar
    11     1     2    1
    12     2     3    1
    13     3     4    1
    14     4     5    1
    15     5     6   am
    16     6     7    2
    17     6     8   am
    18     8    11    1
    19    11    12   ar
    20    12    13   ar
    21    13    14   ar
    22    14    15    1
    23    14    16   ar
    24    16    17   ar
    25     5     9    1
    26     9     1    1
    27    23    18   ar
    28    17    11   ar
    29     8    10    1
@<TRIPOS>MOLECULE
*****
 27 29 0 0 0
SMALL
GASTEIGER

@<TRIPOS>ATOM
      1 C          63.3440   83.4095   12.3856 C.3     1  UNL1        0.0383
      2 C          62.5184   83.6804   11.1630 C.3     1  UNL1        0.0075
      3 C          62.1638   85.0906   10.7948 C.3     1  UNL1        0.0219
      4 C          62.6349   86.2299   11.6493 C.3     1  UNL1        0.0950
      5 N          63.4605   85.9590   12.8719 N.am    1  UNL1       -0.2637
      6 C          63.9316   87.0983   13.7264 C.2     1  UNL1        0.3077
      7 O          64.7573   86.8273   14.9490 O.2     1  UNL1       -0.2522
      8 N          63.5770   88.5085   13.3582 N.am    1  UNL1       -0.2681
      9 C          63.8151   84.5488   13.2401 C.3     1  UNL1        0.0989
     10 H          63.0351   88.6863   12.5557 H       1  UNL1        0.1564
     11 C          64.0481   89.6477   14.2127 C.ar    1  UNL1        0.0516
     12 C          63.4229   89.8868   15.5551 C.ar    1  UNL1        0.0156
     13 C          63.8939   91.0259   16.4096 C.ar    1  UNL1        0.0127
     14 C          64.9903   91.9261   15.9218 C.ar    1  UNL1        0.0578
     15 CL         65.4613   93.0654   16.7764 Cl      1  UNL1       -0.0822
     16 C          65.6155   91.6870   14.5795 C.ar    1  UNL1        0.0127
     17 C          65.1444   90.5478   13.7249 C.ar    1  UNL1        0.0156
     18 C          63.1344   82.0069   11.8968 C.ar    1  UNL1       -0.0212
     19 C          63.3845   81.6692   10.4569 C.ar    1  UNL1       -0.0042
     20 C          63.1749   80.2666    9.9682 C.ar    1  UNL1       -0.0003
     21 C          62.7152   79.2018   10.9194 C.ar    1  UNL1       -0.0000
     22 C          62.4651   79.5395   12.3593 C.ar    1  UNL1       -0.0003
     23 C          62.6747   80.9420   12.8480 C.ar    1  UNL1       -0.0042
     24 C          64.0969   82.6514   13.4385 C.3     1  UNL1        0.0219
     25 C          64.3384   83.2732   14.7820 C.3     1  UNL1        0.1058
     26 N          62.0504   84.4544   16.3213 N.1     1  UNL1       -0.1959
     27 C          63.1943   83.8639   15.5517 C.1     1  UNL1        0.0732
@<TRIPOS>BOND
     1    26    27    3
     2    27    25    1
     3    25    24    1
     4    24     1    1
     5     1    18    1
     6    18    19   ar
     7    19    20   ar
     8    20    21   ar
     9    21    22   ar
    10    22    23   ar
    11     1     2    1
    12     2     3    1
    13     3     4    1
    14     4     5    1
    15     5     6   am
    16     6     7    2
    17     6     8   am
    18     8    11    1
    19    11    12   ar
    20    12    13   ar
    21    13    14   ar
    22    14    15    1
    23    14    16   ar
    24    16    17   ar
    25     5     9    1
    26     9     1    1
    27    23    18   ar
    28    17    11   ar
    29     8    10    1
@<TRIPOS>MOLECULE
*****
 27 29 0 0 0
SMALL
GASTEIGER

@<TRIPOS>ATOM
      1 C          63.9228   87.8034   13.9792 C.3     1  UNL1        0.0383
      2 C          63.3070   88.6343   12.8927 C.3     1  UNL1        0.0075
      3 C          62.7054   87.9697   11.6900 C.3     1  UNL1        0.0219
      4 C          62.7195   86.4742   11.5739 C.3     1  UNL1        0.0950
      5 N          63.3352   85.6434   12.6604 N.am    1  UNL1       -0.2637
      6 C          63.3493   84.1479   12.5443 C.2     1  UNL1        0.3077
      7 O          63.9651   83.3172   13.6309 O.2     1  UNL1       -0.2522
      8 N          62.7476   83.4834   11.3417 N.am    1  UNL1       -0.2681
      9 C          63.9369   86.3080   13.8631 C.3     1  UNL1        0.0989
     10 H          62.3435   84.0287   10.6286 H       1  UNL1        0.1564
     11 C          62.7618   81.9880   11.2257 C.ar    1  UNL1        0.0516
     12 C          63.0853   81.3407    9.9117 C.ar    1  UNL1        0.0156
     13 C          63.0995   79.8454    9.7956 C.ar    1  UNL1        0.0127
     14 C          62.7901   78.9971   10.9934 C.ar    1  UNL1        0.0578
     15 CL         62.8043   77.5016   10.8773 Cl      1  UNL1       -0.0822
     16 C          62.4666   79.6443   12.3074 C.ar    1  UNL1        0.0127
     17 C          62.4524   81.1398   12.4235 C.ar    1  UNL1        0.0156
     18 C          64.1499   89.1759   14.5403 C.ar    1  UNL1       -0.0212
     19 C          63.5083   89.5716   15.8371 C.ar    1  UNL1       -0.0042
     20 C          63.7355   90.9440   16.3982 C.ar    1  UNL1       -0.0003
     21 C          64.6043   91.9207   15.6626 C.ar    1  UNL1       -0.0000
     22 C          65.2459   91.5250   14.3658 C.ar    1  UNL1       -0.0003
     23 C          65.0188   90.1526   13.8047 C.ar    1  UNL1       -0.0042
     24 C          64.6174   87.4492   15.2606 C.3     1  UNL1        0.0219
     25 C          64.2772   86.1722   15.9700 C.3     1  UNL1        0.1058
     26 N          62.0886   86.1329   18.0214 N.1     1  UNL1       -0.1959
     27 C          63.1829   86.1525   16.9957 C.1     1  UNL1        0.0732
@<TRIPOS>BOND
     1    26    27    3
     2    27    25    1
     3    25    24    1
     4    24     1    1
     5     1    18    1
     6    18    19   ar
     7    19    20   ar
     8    20    21   ar
     9    21    22   ar
    10    22    23   ar
    11     1     2    1
    12     2     3    1
    13     3     4    1
    14     4     5    1
    15     5     6   am
    16     6     7    2
    17     6     8   am
    18     8    11    1
    19    11    12   ar
    20    12    13   ar
    21    13    14   ar
    22    14    15    1
    23    14    16   ar
    24    16    17   ar
    25     5     9    1
    26     9     1    1
    27    23    18   ar
    28    17    11   ar
    29     8    10    1
@<TRIPOS>MOLECULE
*****
 27 29 0 0 0
SMALL
GASTEIGER

@<TRIPOS>ATOM
      1 C          61.9275   88.1268   10.3500 C.3     1  UNL1        0.0383
      2 C          61.9130   86.7748   10.9993 C.3     1  UNL1        0.0075
      3 C          62.6997   86.5369   12.2541 C.3     1  UNL1        0.0219
      4 C          63.5009   87.6511   12.8596 C.3     1  UNL1        0.0950
      5 N          63.5153   89.0032   12.2104 N.am    1  UNL1       -0.2637
      6 C          64.3165   90.1175   12.8159 C.2     1  UNL1        0.3077
      7 O          64.3309   91.4696   12.1665 O.2     1  UNL1       -0.2522
      8 N          65.1032   89.8796   14.0707 N.am    1  UNL1       -0.2681
      9 C          62.7287   89.2411   10.9556 C.3     1  UNL1        0.0989
     10 H          65.0937   88.9922   14.4968 H       1  UNL1        0.1564
     11 C          65.9043   90.9939   14.6761 C.ar    1  UNL1        0.0516
     12 C          67.2791   91.2966   14.1579 C.ar    1  UNL1        0.0156
     13 C          68.0802   92.4108   14.7632 C.ar    1  UNL1        0.0127
     14 C          67.5067   93.2224   15.8869 C.ar    1  UNL1        0.0578
     15 CL         68.3079   94.3367   16.4923 Cl      1  UNL1       -0.0822
     16 C          66.1320   92.9197   16.4051 C.ar    1  UNL1        0.0127
     17 C          65.3308   91.8054   15.7997 C.ar    1  UNL1        0.0156
     18 C          61.0221   87.3938    9.4050 C.ar    1  UNL1       -0.0212
     19 C          61.5580   86.2623    8.5788 C.ar    1  UNL1       -0.0042
     20 C          60.6527   85.5293    7.6339 C.ar    1  UNL1       -0.0003
     21 C          59.2115   85.9277    7.5151 C.ar    1  UNL1       -0.0000
     22 C          58.6756   87.0592    8.3413 C.ar    1  UNL1       -0.0003
     23 C          59.5809   87.7922    9.2862 C.ar    1  UNL1       -0.0042
     24 C          61.6275   89.2244    9.3725 C.3     1  UNL1        0.0219
     25 C          61.2937   90.6000    9.8686 C.3     1  UNL1        0.1058
     26 N          58.8867   91.0242   11.6081 N.1     1  UNL1       -0.1959
     27 C          60.0902   90.8121   10.7384 C.1     1  UNL1        0.0732
@<TRIPOS>BOND
     1    26    27    3
     2    27    25    1
     3    25    24    1
     4    24     1    1
     5     1    18    1
     6    18    19   ar
     7    19    20   ar
     8    20    21   ar
     9    21    22   ar
    10    22    23   ar
    11     1     2    1
    12     2     3    1
    13     3     4    1
    14     4     5    1
    15     5     6   am
    16     6     7    2
    17     6     8   am
    18     8    11    1
    19    11    12   ar
    20    12    13   ar
    21    13    14   ar
    22    14    15    1
    23    14    16   ar
    24    16    17   ar
    25     5     9    1
    26     9     1    1
    27    23    18   ar
    28    17    11   ar
    29     8    10    1
@<TRIPOS>MOLECULE
*****
 27 29 0 0 0
SMALL
GASTEIGER

@<TRIPOS>ATOM
      1 C          63.8279   94.4623   -2.9092 C.3     1  UNL1        0.0383
      2 C          64.8900   95.3827   -2.3852 C.3     1  UNL1        0.0075
      3 C          65.0500   95.5787   -0.9067 C.3     1  UNL1        0.0219
      4 C          64.1478   94.8542    0.0478 C.3     1  UNL1        0.0950
      5 N          63.0856   93.9338   -0.4762 N.am    1  UNL1       -0.2637
      6 C          62.1834   93.2093    0.4784 C.2     1  UNL1        0.3077
      7 O          61.1212   92.2889   -0.0457 O.2     1  UNL1       -0.2522
      8 N          62.3433   93.4053    1.9569 N.am    1  UNL1       -0.2681
      9 C          62.9256   93.7379   -1.9547 C.3     1  UNL1        0.0989
     10 H          63.0405   94.0094    2.3008 H       1  UNL1        0.1564
     11 C          61.4411   92.6808    2.9113 C.ar    1  UNL1        0.0516
     12 C          60.0039   93.0903    3.0422 C.ar    1  UNL1        0.0156
     13 C          59.1017   92.3659    3.9966 C.ar    1  UNL1        0.0127
     14 C          59.6364   91.2319    4.8202 C.ar    1  UNL1        0.0578
     15 CL         58.7340   90.5074    5.7747 Cl      1  UNL1       -0.0822
     16 C          61.0735   90.8224    4.6894 C.ar    1  UNL1        0.0127
     17 C          61.9758   91.5469    3.7349 C.ar    1  UNL1        0.0156
     18 C          64.4344   94.9227   -4.2017 C.ar    1  UNL1       -0.0212
     19 C          64.9740   93.9185   -5.1765 C.ar    1  UNL1       -0.0042
     20 C          65.5804   94.3789   -6.4689 C.ar    1  UNL1       -0.0003
     21 C          65.6472   95.8434   -6.7864 C.ar    1  UNL1       -0.0000
     22 C          65.1076   96.8475   -5.8115 C.ar    1  UNL1       -0.0003
     23 C          64.5012   96.3872   -4.5191 C.ar    1  UNL1       -0.0042
     24 C          62.9763   93.7018   -3.8821 C.3     1  UNL1        0.0219
     25 C          61.4902   93.9044   -3.8960 C.3     1  UNL1        0.1058
     26 N          60.2187   95.5329   -6.0711 N.1     1  UNL1       -0.1959
     27 C          60.8544   94.7187   -4.9836 C.1     1  UNL1        0.0732
@<TRIPOS>BOND
     1    26    27    3
     2    27    25    1
     3    25    24    1
     4    24     1    1
     5     1    18    1
     6    18    19   ar
     7    19    20   ar
     8    20    21   ar
     9    21    22   ar
    10    22    23   ar
    11     1     2    1
    12     2     3    1
    13     3     4    1
    14     4     5    1
    15     5     6   am
    16     6     7    2
    17     6     8   am
    18     8    11    1
    19    11    12   ar
    20    12    13   ar
    21    13    14   ar
    22    14    15    1
    23    14    16   ar
    24    16    17   ar
    25     5     9    1
    26     9     1    1
    27    23    18   ar
    28    17    11   ar
    29     8    10    1
