@<TRIPOS>MOLECULE
*****
 37 40 0 0 0
SMALL
GASTEIGER

@<TRIPOS>ATOM
      1 C          63.9902   86.5650   15.6585 C.ar    1  UNL1        0.0611
      2 C          63.1360   86.2089   16.8390 C.ar    1  UNL1        0.1037
      3 N          62.6387   87.4840   17.4528 N.ar    1  UNL1       -0.2269
      4 C          63.1855   88.6282   16.6516 C.ar    1  UNL1        0.1407
      5 N          63.0308   90.1139   16.7886 N.ar    1  UNL1       -0.3374
      6 C          63.7113   91.0316   15.8167 C.ar    1  UNL1        0.0735
      7 C          64.5465   90.4636   14.7077 C.ar    1  UNL1        0.0186
      8 C          64.7013   88.9779   14.5708 C.ar    1  UNL1        0.0047
      9 C          64.0208   88.0602   15.5427 C.ar    1  UNL1        0.0386
     10 H          62.4826   90.4867   17.5165 H       1  UNL1        0.1674
     11 C          65.2270   91.3813   13.7358 C.ar    1  UNL1        0.0207
     12 C          64.5651   91.7177   12.4325 C.ar    1  UNL1        0.0044
     13 C          65.2456   92.6355   11.4605 C.ar    1  UNL1        0.0339
     14 C          66.5881   93.2168   11.7919 C.ar    1  UNL1        0.1254
     15 N          67.2686   94.1346   10.8200 N.pl3   1  UNL1       -0.3426
     16 N          67.2500   92.8804   13.0953 N.ar    1  UNL1       -0.2296
     17 C          66.5695   91.9627   14.0672 C.ar    1  UNL1        0.1003
     18 H          66.8342   94.3553    9.9646 H       1  UNL1        0.1437
     19 H          68.1497   94.5161   11.0375 H       1  UNL1        0.1437
     20 C          64.6908   85.5961   14.7528 C.2     1  UNL1        0.2015
     21 O          66.1785   85.4269   14.8423 O.2     1  UNL1       -0.2864
     22 C          62.5207   84.6699   11.5617 C.ar    1  UNL1        0.0920
     23 C          62.3292   83.1964   11.7670 C.ar    1  UNL1        0.0204
     24 C          62.9249   82.5228   12.9676 C.ar    1  UNL1        0.0312
     25 C          63.7121   83.3226   13.9629 C.ar    1  UNL1        0.1454
     26 F          64.3078   82.6490   15.1634 F       1  UNL1       -0.2040
     27 C          63.9036   84.7961   13.7575 C.ar    1  UNL1        0.0951
     28 C          63.3079   85.4697   12.5569 C.ar    1  UNL1        0.1598
     29 F          63.4994   86.9433   12.3517 F       1  UNL1       -0.2026
     30 N          61.9250   85.3435   10.3611 N.pl3   1  UNL1       -0.2166
     31 H          61.7241   84.8199    9.5520 H       1  UNL1        0.1734
     32 S          61.6355   86.8149   10.3933 S.O2    1  UNL1        0.0540
     33 O          60.7421   86.6131   11.5812 O.2     1  UNL1       -0.1545
     34 O          62.5288   87.0168    9.2054 O.2     1  UNL1       -0.1545
     35 C          61.3459   88.2863   10.4254 C.3     1  UNL1        0.1724
     36 C          62.2896   90.6815   10.0744 C.3     1  UNL1        0.0019
     37 C          62.4720   89.2698   10.5477 C.3     1  UNL1        0.0273
@<TRIPOS>BOND
     1    36    37    1
     2    37    35    1
     3    35    32    1
     4    32    33    2
     5    32    34    2
     6    32    30    1
     7    30    22    1
     8    22    23   ar
     9    23    24   ar
    10    24    25   ar
    11    25    26    1
    12    25    27   ar
    13    27    20    1
    14    20    21    2
    15    20     1    1
    16     1     2   ar
    17     2     3   ar
    18     3     4   ar
    19     4     5   ar
    20     5     6   ar
    21     6     7   ar
    22     7    11    1
    23    11    12   ar
    24    12    13   ar
    25    13    14   ar
    26    14    15    1
    27    14    16   ar
    28    16    17   ar
    29     7     8   ar
    30     8     9   ar
    31    27    28   ar
    32    28    29    1
    33    28    22   ar
    34     9     1   ar
    35     9     4    1
    36    17    11   ar
    37    30    31    1
    38     5    10    1
    39    15    18    1
    40    15    19    1
@<TRIPOS>MOLECULE
*****
 37 40 0 0 0
SMALL
GASTEIGER

@<TRIPOS>ATOM
      1 C          61.5226   86.5909    9.2869 C.ar    1  UNL1        0.0611
      2 C          60.1321   86.3170    8.7954 C.ar    1  UNL1        0.1037
      3 N          59.3122   87.5544    9.0112 N.ar    1  UNL1       -0.2269
      4 C          60.1959   88.5930    9.6361 C.ar    1  UNL1        0.1407
      5 N          59.9331   90.0039   10.0720 N.ar    1  UNL1       -0.3374
      6 C          61.0364   90.8194   10.6783 C.ar    1  UNL1        0.0735
      7 C          62.4026   90.2239   10.8486 C.ar    1  UNL1        0.0186
      8 C          62.6654   88.8129   10.4128 C.ar    1  UNL1        0.0047
      9 C          61.5620   87.9974    9.8065 C.ar    1  UNL1        0.0386
     10 H          59.0364   90.3948    9.9602 H       1  UNL1        0.1674
     11 C          63.5059   91.0394   11.4549 C.ar    1  UNL1        0.0207
     12 C          64.3517   91.9214   10.5850 C.ar    1  UNL1        0.0044
     13 C          65.4551   92.7369   11.1913 C.ar    1  UNL1        0.0339
     14 C          65.7126   92.6705   12.6675 C.ar    1  UNL1        0.1254
     15 N          66.8159   93.4859   13.2739 N.pl3   1  UNL1       -0.3426
     16 N          64.8668   91.7885   13.5375 N.ar    1  UNL1       -0.2296
     17 C          63.7635   90.9730   12.9312 C.ar    1  UNL1        0.1003
     18 H          67.3711   94.0648   12.7029 H       1  UNL1        0.1437
     19 H          66.9849   93.4423   14.2428 H       1  UNL1        0.1437
     20 C          62.6719   85.6273    9.2630 C.2     1  UNL1        0.2015
     21 O          63.5414   85.5270    8.0450 O.2     1  UNL1       -0.2864
     22 C          62.6033   84.2242   12.9748 C.ar    1  UNL1        0.0920
     23 C          63.5113   83.0372   12.8459 C.ar    1  UNL1        0.0204
     24 C          64.1395   82.7136   11.5228 C.ar    1  UNL1        0.0312
     25 C          63.8598   83.5769   10.3285 C.ar    1  UNL1        0.1454
     26 F          64.4880   83.2533    9.0054 F       1  UNL1       -0.2040
     27 C          62.9517   84.7639   10.4574 C.ar    1  UNL1        0.0951
     28 C          62.3235   85.0875   11.7805 C.ar    1  UNL1        0.1598
     29 F          61.4155   86.2745   11.9092 F       1  UNL1       -0.2026
     30 N          61.9750   84.5478   14.2979 N.pl3   1  UNL1       -0.2166
     31 H          61.0228   84.3508   14.4520 H       1  UNL1        0.1734
     32 S          62.7976   85.1714   15.3861 S.O2    1  UNL1        0.0540
     33 O          62.1505   84.2676   16.3932 O.2     1  UNL1       -0.1545
     34 O          63.4447   86.0753   14.3790 O.2     1  UNL1       -0.1545
     35 C          63.6202   85.7951   16.4743 C.3     1  UNL1        0.1724
     36 C          63.0774   88.2417   17.1600 C.3     1  UNL1        0.0019
     37 C          62.9904   86.7681   17.4266 C.3     1  UNL1        0.0273
@<TRIPOS>BOND
     1    36    37    1
     2    37    35    1
     3    35    32    1
     4    32    33    2
     5    32    34    2
     6    32    30    1
     7    30    22    1
     8    22    23   ar
     9    23    24   ar
    10    24    25   ar
    11    25    26    1
    12    25    27   ar
    13    27    20    1
    14    20    21    2
    15    20     1    1
    16     1     2   ar
    17     2     3   ar
    18     3     4   ar
    19     4     5   ar
    20     5     6   ar
    21     6     7   ar
    22     7    11    1
    23    11    12   ar
    24    12    13   ar
    25    13    14   ar
    26    14    15    1
    27    14    16   ar
    28    16    17   ar
    29     7     8   ar
    30     8     9   ar
    31    27    28   ar
    32    28    29    1
    33    28    22   ar
    34     9     1   ar
    35     9     4    1
    36    17    11   ar
    37    30    31    1
    38     5    10    1
    39    15    18    1
    40    15    19    1
@<TRIPOS>MOLECULE
*****
 37 40 0 0 0
SMALL
GASTEIGER

@<TRIPOS>ATOM
      1 C          62.4503   89.8360   11.6242 C.ar    1  UNL1        0.0611
      2 C          61.8597   90.6791   10.5331 C.ar    1  UNL1        0.1037
      3 N          61.3066   89.7597    9.4849 N.ar    1  UNL1       -0.2269
      4 C          61.5552   88.3484    9.9282 C.ar    1  UNL1        0.1407
      5 N          61.2294   87.0265    9.2987 N.ar    1  UNL1       -0.3374
      6 C          61.6103   85.7518    9.9913 C.ar    1  UNL1        0.0735
      7 C          62.3172   85.7989   11.3135 C.ar    1  UNL1        0.0186
      8 C          62.6431   87.1209   11.9430 C.ar    1  UNL1        0.0047
      9 C          62.2621   88.3956   11.2503 C.ar    1  UNL1        0.0386
     10 H          60.7654   86.9956    8.4309 H       1  UNL1        0.1674
     11 C          62.6982   84.5241   12.0062 C.ar    1  UNL1        0.0207
     12 C          63.0698   83.3148   11.2003 C.ar    1  UNL1        0.0044
     13 C          63.4508   82.0400   11.8930 C.ar    1  UNL1        0.0339
     14 C          63.4601   81.9745   13.3915 C.ar    1  UNL1        0.1254
     15 N          63.8411   80.6998   14.0842 N.pl3   1  UNL1       -0.3426
     16 N          63.0884   83.1839   14.1974 N.ar    1  UNL1       -0.2296
     17 C          62.7075   84.4586   13.5047 C.ar    1  UNL1        0.1003
     18 H          64.0850   79.9061   13.5553 H       1  UNL1        0.1437
     19 H          63.8472   80.6568   15.0677 H       1  UNL1        0.1437
     20 C          63.1127   90.3441   12.8704 C.2     1  UNL1        0.2015
     21 O          62.4697   90.1193   14.2067 O.2     1  UNL1       -0.2864
     22 C          66.1070   92.5062   11.4176 C.ar    1  UNL1        0.0920
     23 C          67.0296   92.5432   12.5998 C.ar    1  UNL1        0.0204
     24 C          66.6465   91.8472   13.8722 C.ar    1  UNL1        0.0312
     25 C          65.3409   91.1142   13.9624 C.ar    1  UNL1        0.1454
     26 F          64.9579   90.4182   15.2347 F       1  UNL1       -0.2040
     27 C          64.4184   91.0772   12.7802 C.ar    1  UNL1        0.0951
     28 C          64.8015   91.7732   11.5079 C.ar    1  UNL1        0.1598
     29 F          63.8789   91.7361   10.3257 F       1  UNL1       -0.2026
     30 N          66.4901   93.2022   10.1453 N.pl3   1  UNL1       -0.2166
     31 H          66.5891   92.6863    9.3126 H       1  UNL1        0.1734
     32 S          66.7222   94.6841   10.1417 S.O2    1  UNL1        0.0540
     33 O          68.1297   94.4624    9.6728 O.2     1  UNL1       -0.1545
     34 O          65.3148   94.9057   10.6105 O.2     1  UNL1       -0.1545
     35 C          66.9543   96.1660   10.1381 C.3     1  UNL1        0.1724
     36 C          66.5051   96.8531    7.6730 C.3     1  UNL1        0.0019
     37 C          67.3960   96.8529    8.8798 C.3     1  UNL1        0.0273
@<TRIPOS>BOND
     1    36    37    1
     2    37    35    1
     3    35    32    1
     4    32    33    2
     5    32    34    2
     6    32    30    1
     7    30    22    1
     8    22    23   ar
     9    23    24   ar
    10    24    25   ar
    11    25    26    1
    12    25    27   ar
    13    27    20    1
    14    20    21    2
    15    20     1    1
    16     1     2   ar
    17     2     3   ar
    18     3     4   ar
    19     4     5   ar
    20     5     6   ar
    21     6     7   ar
    22     7    11    1
    23    11    12   ar
    24    12    13   ar
    25    13    14   ar
    26    14    15    1
    27    14    16   ar
    28    16    17   ar
    29     7     8   ar
    30     8     9   ar
    31    27    28   ar
    32    28    29    1
    33    28    22   ar
    34     9     1   ar
    35     9     4    1
    36    17    11   ar
    37    30    31    1
    38     5    10    1
    39    15    18    1
    40    15    19    1
@<TRIPOS>MOLECULE
*****
 37 40 0 0 0
SMALL
GASTEIGER

@<TRIPOS>ATOM
      1 C          63.3846   90.2653   13.0959 C.ar    1  UNL1        0.0611
      2 C          63.2887   89.7288   14.4934 C.ar    1  UNL1        0.1037
      3 N          64.2474   90.4991   15.3523 N.ar    1  UNL1       -0.2269
      4 C          64.9357   91.5116   14.4856 C.ar    1  UNL1        0.1407
      5 N          65.9791   92.5464   14.7861 N.ar    1  UNL1       -0.3374
      6 C          66.4893   93.4367   13.6920 C.ar    1  UNL1        0.0735
      7 C          65.9560   93.2922   12.2975 C.ar    1  UNL1        0.0186
      8 C          64.9126   92.2574   11.9970 C.ar    1  UNL1        0.0047
      9 C          64.4024   91.3671   13.0911 C.ar    1  UNL1        0.0386
     10 H          66.3291   92.6413   15.7014 H       1  UNL1        0.1674
     11 C          66.4662   94.1826   11.2034 C.ar    1  UNL1        0.0207
     12 C          67.1374   93.5856   10.0022 C.ar    1  UNL1        0.0044
     13 C          67.6477   94.4760    8.9082 C.ar    1  UNL1        0.0339
     14 C          67.4866   95.9635    9.0153 C.ar    1  UNL1        0.1254
     15 N          67.9967   96.8539    7.9213 N.pl3   1  UNL1       -0.3426
     16 N          66.8153   96.5605   10.2166 N.ar    1  UNL1       -0.2296
     17 C          66.3051   95.6701   11.3106 C.ar    1  UNL1        0.1003
     18 H          68.4373   96.4620    7.1329 H       1  UNL1        0.1437
     19 H          67.8910   97.8301    7.9917 H       1  UNL1        0.1437
     20 C          62.6002   89.7844   11.9112 C.2     1  UNL1        0.2015
     21 O          62.0368   90.7725   10.9335 O.2     1  UNL1       -0.2864
     22 C          62.9784   85.8493   12.2617 C.ar    1  UNL1        0.0920
     23 C          61.9378   85.3769   11.2902 C.ar    1  UNL1        0.0204
     24 C          61.1180   86.3736   10.5257 C.ar    1  UNL1        0.0312
     25 C          61.3387   87.8427   10.7326 C.ar    1  UNL1        0.1454
     26 F          60.5190   88.8394    9.9681 F       1  UNL1       -0.2040
     27 C          62.3794   88.3151   11.7042 C.ar    1  UNL1        0.0951
     28 C          63.1992   87.3184   12.4687 C.ar    1  UNL1        0.1598
     29 F          64.2398   87.7909   13.4402 F       1  UNL1       -0.2026
     30 N          63.7982   84.8526   13.0262 N.pl3   1  UNL1       -0.2166
     31 H          64.7811   84.9037   13.0047 H       1  UNL1        0.1734
     32 S          63.1204   83.7780   13.8236 S.O2    1  UNL1        0.0540
     33 O          63.7528   82.7330   12.9530 O.2     1  UNL1       -0.1545
     34 O          62.4879   84.8230   14.6942 O.2     1  UNL1       -0.1545
     35 C          62.4425   82.7036   14.6210 C.3     1  UNL1        0.1724
     36 C          60.7228   80.8320   14.0820 C.3     1  UNL1        0.0019
     37 C          62.1119   81.3887   13.9791 C.3     1  UNL1        0.0273
@<TRIPOS>BOND
     1    36    37    1
     2    37    35    1
     3    35    32    1
     4    32    33    2
     5    32    34    2
     6    32    30    1
     7    30    22    1
     8    22    23   ar
     9    23    24   ar
    10    24    25   ar
    11    25    26    1
    12    25    27   ar
    13    27    20    1
    14    20    21    2
    15    20     1    1
    16     1     2   ar
    17     2     3   ar
    18     3     4   ar
    19     4     5   ar
    20     5     6   ar
    21     6     7   ar
    22     7    11    1
    23    11    12   ar
    24    12    13   ar
    25    13    14   ar
    26    14    15    1
    27    14    16   ar
    28    16    17   ar
    29     7     8   ar
    30     8     9   ar
    31    27    28   ar
    32    28    29    1
    33    28    22   ar
    34     9     1   ar
    35     9     4    1
    36    17    11   ar
    37    30    31    1
    38     5    10    1
    39    15    18    1
    40    15    19    1
@<TRIPOS>MOLECULE
*****
 37 40 0 0 0
SMALL
GASTEIGER

@<TRIPOS>ATOM
      1 C          60.6282   89.1618    9.7579 C.ar    1  UNL1        0.0611
      2 C          60.0595   89.2888    8.3758 C.ar    1  UNL1        0.1037
      3 N          60.1895   87.9575    7.6970 N.ar    1  UNL1       -0.2269
      4 C          60.8386   87.0078    8.6596 C.ar    1  UNL1        0.1407
      5 N          61.2178   85.5614    8.5408 N.ar    1  UNL1       -0.3374
      6 C          61.8681   84.8593    9.6958 C.ar    1  UNL1        0.0735
      7 C          62.1393   85.6036   10.9696 C.ar    1  UNL1        0.0186
      8 C          61.7601   87.0500   11.0883 C.ar    1  UNL1        0.0047
      9 C          61.1098   87.7521    9.9333 C.ar    1  UNL1        0.0386
     10 H          61.0398   85.0729    7.7048 H       1  UNL1        0.1674
     11 C          62.7897   84.9015   12.1246 C.ar    1  UNL1        0.0207
     12 C          63.4888   85.6957   13.1878 C.ar    1  UNL1        0.0044
     13 C          64.1392   84.9935   14.3428 C.ar    1  UNL1        0.0339
     14 C          64.0904   83.4971   14.4346 C.ar    1  UNL1        0.1254
     15 N          64.7408   82.7950   15.5896 N.pl3   1  UNL1       -0.3426
     16 N          63.3913   82.7029   13.3713 N.ar    1  UNL1       -0.2296
     17 C          62.7409   83.4051   12.2164 C.ar    1  UNL1        0.1003
     18 H          65.1996   83.3162   16.2874 H       1  UNL1        0.1437
     19 H          64.7088   81.8128   15.6498 H       1  UNL1        0.1437
     20 C          60.7024   90.2530   10.7845 C.2     1  UNL1        0.2015
     21 O          59.4478   90.9275   11.2541 O.2     1  UNL1       -0.2864
     22 C          63.6602   90.8844   13.3542 C.ar    1  UNL1        0.0920
     23 C          64.6895   91.5029   12.4553 C.ar    1  UNL1        0.0204
     24 C          64.3898   91.7048   10.9995 C.ar    1  UNL1        0.0312
     25 C          63.0608   91.2882   10.4425 C.ar    1  UNL1        0.1454
     26 F          62.7611   91.4900    8.9867 F       1  UNL1       -0.2040
     27 C          62.0315   90.6697   11.3414 C.ar    1  UNL1        0.0951
     28 C          62.3312   90.4678   12.7972 C.ar    1  UNL1        0.1598
     29 F          61.3019   89.8493   13.6961 F       1  UNL1       -0.2026
     30 N          63.9599   90.6826   14.8100 N.pl3   1  UNL1       -0.2166
     31 H          64.2828   91.4361   15.3552 H       1  UNL1        0.1734
     32 S          63.7676   89.3327   15.4352 S.O2    1  UNL1        0.0540
     33 O          62.8393   89.9341   16.4483 O.2     1  UNL1       -0.1545
     34 O          64.6960   88.7313   14.4221 O.2     1  UNL1       -0.1545
     35 C          63.5754   87.9828   16.0603 C.3     1  UNL1        0.1724
     36 C          62.6600   86.5084   17.9938 C.3     1  UNL1        0.0019
     37 C          62.8590   87.8590   17.3723 C.3     1  UNL1        0.0273
@<TRIPOS>BOND
     1    36    37    1
     2    37    35    1
     3    35    32    1
     4    32    33    2
     5    32    34    2
     6    32    30    1
     7    30    22    1
     8    22    23   ar
     9    23    24   ar
    10    24    25   ar
    11    25    26    1
    12    25    27   ar
    13    27    20    1
    14    20    21    2
    15    20     1    1
    16     1     2   ar
    17     2     3   ar
    18     3     4   ar
    19     4     5   ar
    20     5     6   ar
    21     6     7   ar
    22     7    11    1
    23    11    12   ar
    24    12    13   ar
    25    13    14   ar
    26    14    15    1
    27    14    16   ar
    28    16    17   ar
    29     7     8   ar
    30     8     9   ar
    31    27    28   ar
    32    28    29    1
    33    28    22   ar
    34     9     1   ar
    35     9     4    1
    36    17    11   ar
    37    30    31    1
    38     5    10    1
    39    15    18    1
    40    15    19    1
@<TRIPOS>MOLECULE
*****
 37 40 0 0 0
SMALL
GASTEIGER

@<TRIPOS>ATOM
      1 C          64.1726   89.0150   14.1239 C.ar    1  UNL1        0.0611
      2 C          64.8348   88.0550   15.0672 C.ar    1  UNL1        0.1037
      3 N          64.5215   86.6622   14.6067 N.ar    1  UNL1       -0.2269
      4 C          63.6657   86.7615   13.3788 C.ar    1  UNL1        0.1407
      5 N          63.0550   85.7156   12.4939 N.ar    1  UNL1       -0.3374
      6 C          62.2286   86.1239   11.3106 C.ar    1  UNL1        0.0735
      7 C          62.0129   87.5780   11.0121 C.ar    1  UNL1        0.0186
      8 C          62.6237   88.6238   11.8971 C.ar    1  UNL1        0.0047
      9 C          63.4501   88.2156   13.0804 C.ar    1  UNL1        0.0386
     10 H          63.1965   84.7612   12.6897 H       1  UNL1        0.1674
     11 C          61.1865   87.9863    9.8287 C.ar    1  UNL1        0.0207
     12 C          60.5594   86.9405    8.9552 C.ar    1  UNL1        0.0044
     13 C          59.7329   87.3487    7.7718 C.ar    1  UNL1        0.0339
     14 C          59.5336   88.8028    7.4620 C.ar    1  UNL1        0.1254
     15 N          58.7072   89.2111    6.2787 N.pl3   1  UNL1       -0.3426
     16 N          60.1608   89.8486    8.3356 N.ar    1  UNL1       -0.2296
     17 C          60.9872   89.4403    9.5189 C.ar    1  UNL1        0.1003
     18 H          58.2956   88.5247    5.7053 H       1  UNL1        0.1437
     19 H          58.5764   90.1654    6.0753 H       1  UNL1        0.1437
     20 C          64.2239   90.5117   14.2091 C.2     1  UNL1        0.2015
     21 O          63.1966   91.2529   15.0122 O.2     1  UNL1       -0.2864
     22 C          66.0813   92.7012   11.4692 C.ar    1  UNL1        0.0920
     23 C          67.4601   92.7783   12.0550 C.ar    1  UNL1        0.0204
     24 C          67.7601   92.0999   13.3587 C.ar    1  UNL1        0.0312
     25 C          66.6815   91.3444   14.0768 C.ar    1  UNL1        0.1454
     26 F          66.9815   90.6661   15.3805 F       1  UNL1       -0.2040
     27 C          65.3027   91.2673   13.4910 C.ar    1  UNL1        0.0951
     28 C          65.0027   91.9456   12.1873 C.ar    1  UNL1        0.1598
     29 F          63.6239   91.8684   11.6016 F       1  UNL1       -0.2026
     30 N          65.7813   93.3795   10.1655 N.pl3   1  UNL1       -0.2166
     31 H          65.1134   92.9951    9.5528 H       1  UNL1        0.1734
     32 S          66.4989   94.6436    9.7952 S.O2    1  UNL1        0.0540
     33 O          65.5932   95.4233   10.7017 O.2     1  UNL1       -0.1545
     34 O          67.4046   93.8639    8.8886 O.2     1  UNL1       -0.1545
     35 C          67.2166   95.9076    9.4248 C.3     1  UNL1        0.1724
     36 C          65.7035   96.5815    7.4231 C.3     1  UNL1        0.0019
     37 C          67.0638   96.4806    8.0470 C.3     1  UNL1        0.0273
@<TRIPOS>BOND
     1    36    37    1
     2    37    35    1
     3    35    32    1
     4    32    33    2
     5    32    34    2
     6    32    30    1
     7    30    22    1
     8    22    23   ar
     9    23    24   ar
    10    24    25   ar
    11    25    26    1
    12    25    27   ar
    13    27    20    1
    14    20    21    2
    15    20     1    1
    16     1     2   ar
    17     2     3   ar
    18     3     4   ar
    19     4     5   ar
    20     5     6   ar
    21     6     7   ar
    22     7    11    1
    23    11    12   ar
    24    12    13   ar
    25    13    14   ar
    26    14    15    1
    27    14    16   ar
    28    16    17   ar
    29     7     8   ar
    30     8     9   ar
    31    27    28   ar
    32    28    29    1
    33    28    22   ar
    34     9     1   ar
    35     9     4    1
    36    17    11   ar
    37    30    31    1
    38     5    10    1
    39    15    18    1
    40    15    19    1
@<TRIPOS>MOLECULE
*****
 37 40 0 0 0
SMALL
GASTEIGER

@<TRIPOS>ATOM
      1 C          60.8957   89.2113   10.0604 C.ar    1  UNL1        0.0611
      2 C          60.2951   89.3581    8.6938 C.ar    1  UNL1        0.1037
      3 N          60.3597   88.0229    8.0133 N.ar    1  UNL1       -0.2269
      4 C          61.0001   87.0509    8.9593 C.ar    1  UNL1        0.1407
      5 N          61.3245   85.5919    8.8322 N.ar    1  UNL1       -0.3374
      6 C          61.9801   84.8674    9.9702 C.ar    1  UNL1        0.0735
      7 C          62.3114   85.6019   11.2355 C.ar    1  UNL1        0.0186
      8 C          61.9871   87.0609   11.3626 C.ar    1  UNL1        0.0047
      9 C          61.3315   87.7853   10.2246 C.ar    1  UNL1        0.0386
     10 H          61.1070   85.1098    8.0018 H       1  UNL1        0.1674
     11 C          62.9671   84.8774   12.3736 C.ar    1  UNL1        0.0207
     12 C          63.6229   85.6524   13.4777 C.ar    1  UNL1        0.0044
     13 C          64.2785   84.9279   14.6158 C.ar    1  UNL1        0.0339
     14 C          64.2784   83.4282   14.6497 C.ar    1  UNL1        0.1254
     15 N          64.9340   82.7037   15.7877 N.pl3   1  UNL1       -0.3426
     16 N          63.6225   82.6532   13.5455 N.ar    1  UNL1       -0.2296
     17 C          62.9669   83.3777   12.4074 C.ar    1  UNL1        0.1003
     18 H          65.3644   83.2124   16.5124 H       1  UNL1        0.1437
     19 H          64.9339   81.7194   15.8099 H       1  UNL1        0.1437
     20 C          61.0360   90.2993   11.0834 C.2     1  UNL1        0.2015
     21 O          59.8130   90.9179   11.6929 O.2     1  UNL1       -0.2864
     22 C          64.2451   91.0007   13.3105 C.ar    1  UNL1        0.0920
     23 C          65.1260   91.7079   12.3236 C.ar    1  UNL1        0.0204
     24 C          64.6436   91.9455   10.9233 C.ar    1  UNL1        0.0312
     25 C          63.2803   91.4760   10.5099 C.ar    1  UNL1        0.1454
     26 F          62.7979   91.7136    9.1096 F       1  UNL1       -0.2040
     27 C          62.3994   90.7689   11.4968 C.ar    1  UNL1        0.0951
     28 C          62.8818   90.5313   12.8971 C.ar    1  UNL1        0.1598
     29 F          62.0008   89.8241   13.8839 F       1  UNL1       -0.2026
     30 N          64.7275   90.7631   14.7108 N.pl3   1  UNL1       -0.2166
     31 H          64.4454   89.9556   15.1983 H       1  UNL1        0.1734
     32 S          65.6396   91.7559   15.3684 S.O2    1  UNL1        0.0540
     33 O          66.8109   91.1572   14.6477 O.2     1  UNL1       -0.1545
     34 O          64.4682   92.3546   16.0892 O.2     1  UNL1       -0.1545
     35 C          66.5516   92.7487   16.0261 C.3     1  UNL1        0.1724
     36 C          68.9907   93.6101   15.7833 C.3     1  UNL1        0.0019
     37 C          68.0293   92.4950   16.0703 C.3     1  UNL1        0.0273
@<TRIPOS>BOND
     1    36    37    1
     2    37    35    1
     3    35    32    1
     4    32    33    2
     5    32    34    2
     6    32    30    1
     7    30    22    1
     8    22    23   ar
     9    23    24   ar
    10    24    25   ar
    11    25    26    1
    12    25    27   ar
    13    27    20    1
    14    20    21    2
    15    20     1    1
    16     1     2   ar
    17     2     3   ar
    18     3     4   ar
    19     4     5   ar
    20     5     6   ar
    21     6     7   ar
    22     7    11    1
    23    11    12   ar
    24    12    13   ar
    25    13    14   ar
    26    14    15    1
    27    14    16   ar
    28    16    17   ar
    29     7     8   ar
    30     8     9   ar
    31    27    28   ar
    32    28    29    1
    33    28    22   ar
    34     9     1   ar
    35     9     4    1
    36    17    11   ar
    37    30    31    1
    38     5    10    1
    39    15    18    1
    40    15    19    1
@<TRIPOS>MOLECULE
*****
 37 40 0 0 0
SMALL
GASTEIGER

@<TRIPOS>ATOM
      1 C          61.8178   86.4409   10.5701 C.ar    1  UNL1        0.0611
      2 C          60.5131   86.1420    9.8931 C.ar    1  UNL1        0.1037
      3 N          59.8080   87.4436    9.6505 N.ar    1  UNL1       -0.2269
      4 C          60.6769   88.5468   10.1776 C.ar    1  UNL1        0.1407
      5 N          60.4975   90.0356   10.2135 N.ar    1  UNL1       -0.3374
      6 C          61.5602   90.9047   10.8178 C.ar    1  UNL1        0.0735
      7 C          62.8024   90.2850   11.3861 C.ar    1  UNL1        0.0186
      8 C          62.9818   88.7963   11.3503 C.ar    1  UNL1        0.0047
      9 C          61.9191   87.9272   10.7460 C.ar    1  UNL1        0.0386
     10 H          59.6822   90.4423    9.8405 H       1  UNL1        0.1674
     11 C          63.8652   91.1542   11.9904 C.ar    1  UNL1        0.0207
     12 C          64.6806   92.0597   11.1157 C.ar    1  UNL1        0.0044
     13 C          65.7433   92.9289   11.7200 C.ar    1  UNL1        0.0339
     14 C          65.9907   92.8925   13.1990 C.ar    1  UNL1        0.1254
     15 N          67.0534   93.7617   13.8033 N.pl3   1  UNL1       -0.3426
     16 N          65.1752   91.9870   14.0737 N.ar    1  UNL1       -0.2296
     17 C          64.1125   91.1178   13.4694 C.ar    1  UNL1        0.1003
     18 H          67.5886   94.3560   13.2292 H       1  UNL1        0.1437
     19 H          67.2157   93.7378   14.7740 H       1  UNL1        0.1437
     20 C          62.8416   85.4309   10.9965 C.2     1  UNL1        0.2015
     21 O          63.7397   84.7967    9.9763 O.2     1  UNL1       -0.2864
     22 C          62.6499   83.3234   14.3539 C.ar    1  UNL1        0.0920
     23 C          63.2186   84.3036   15.3367 C.ar    1  UNL1        0.0204
     24 C          63.6615   85.6595   14.8728 C.ar    1  UNL1        0.0312
     25 C          63.5359   86.0354   13.4261 C.ar    1  UNL1        0.1454
     26 F          63.9789   87.3913   12.9622 F       1  UNL1       -0.2040
     27 C          62.9673   85.0552   12.4433 C.ar    1  UNL1        0.0951
     28 C          62.5243   83.6992   12.9072 C.ar    1  UNL1        0.1598
     29 F          61.9557   82.7191   11.9244 F       1  UNL1       -0.2026
     30 N          62.2069   81.9675   14.8178 N.pl3   1  UNL1       -0.2166
     31 H          61.8643   81.8480   15.7330 H       1  UNL1        0.1734
     32 S          62.2860   80.7937   13.8874 S.O2    1  UNL1        0.0540
     33 O          60.7881   80.7323   13.8376 O.2     1  UNL1       -0.1545
     34 O          63.7839   80.8551   13.9371 O.2     1  UNL1       -0.1545
     35 C          62.3651   79.6199   12.9569 C.3     1  UNL1        0.1724
     36 C          62.7589   78.6677   10.5718 C.3     1  UNL1        0.0019
     37 C          62.7904   79.8193   11.5323 C.3     1  UNL1        0.0273
@<TRIPOS>BOND
     1    36    37    1
     2    37    35    1
     3    35    32    1
     4    32    33    2
     5    32    34    2
     6    32    30    1
     7    30    22    1
     8    22    23   ar
     9    23    24   ar
    10    24    25   ar
    11    25    26    1
    12    25    27   ar
    13    27    20    1
    14    20    21    2
    15    20     1    1
    16     1     2   ar
    17     2     3   ar
    18     3     4   ar
    19     4     5   ar
    20     5     6   ar
    21     6     7   ar
    22     7    11    1
    23    11    12   ar
    24    12    13   ar
    25    13    14   ar
    26    14    15    1
    27    14    16   ar
    28    16    17   ar
    29     7     8   ar
    30     8     9   ar
    31    27    28   ar
    32    28    29    1
    33    28    22   ar
    34     9     1   ar
    35     9     4    1
    36    17    11   ar
    37    30    31    1
    38     5    10    1
    39    15    18    1
    40    15    19    1
@<TRIPOS>MOLECULE
*****
 37 40 0 0 0
SMALL
GASTEIGER

@<TRIPOS>ATOM
      1 C          61.5212   87.2201   10.6841 C.ar    1  UNL1        0.0611
      2 C          60.6387   87.2023    9.4714 C.ar    1  UNL1        0.1037
      3 N          60.6745   88.5680    8.8520 N.ar    1  UNL1       -0.2269
      4 C          61.5791   89.4298    9.6819 C.ar    1  UNL1        0.1407
      5 N          61.9940   90.8655    9.5528 N.ar    1  UNL1       -0.3374
      6 C          62.9321   91.4682   10.5561 C.ar    1  UNL1        0.0735
      7 C          63.4555   90.6351   11.6884 C.ar    1  UNL1        0.0186
      8 C          63.0407   89.1995   11.8175 C.ar    1  UNL1        0.0047
      9 C          62.1025   88.5968   10.8143 C.ar    1  UNL1        0.0386
     10 H          61.6505   91.4122    8.8097 H       1  UNL1        0.1674
     11 C          64.3937   91.2379   12.6917 C.ar    1  UNL1        0.0207
     12 C          64.4457   90.6965   14.0896 C.ar    1  UNL1        0.0044
     13 C          65.3840   91.2993   15.0929 C.ar    1  UNL1        0.0339
     14 C          66.2702   92.4433   14.6982 C.ar    1  UNL1        0.1254
     15 N          67.2083   93.0461   15.7014 N.pl3   1  UNL1       -0.3426
     16 N          66.2181   92.9847   13.3002 N.ar    1  UNL1       -0.2296
     17 C          65.2799   92.3819   12.2970 C.ar    1  UNL1        0.1003
     18 H          67.2425   92.6908   16.6189 H       1  UNL1        0.1437
     19 H          67.7900   93.7969   15.4423 H       1  UNL1        0.1437
     20 C          61.7776   86.0642   11.6051 C.2     1  UNL1        0.2015
     21 O          61.1824   86.0558   12.9818 O.2     1  UNL1       -0.2864
     22 C          63.7767   82.6359   11.6307 C.ar    1  UNL1        0.0920
     23 C          64.3324   82.6214   10.2376 C.ar    1  UNL1        0.0204
     24 C          64.0366   83.7545    9.3003 C.ar    1  UNL1        0.0312
     25 C          63.1850   84.9021    9.7560 C.ar    1  UNL1        0.1454
     26 F          62.8892   86.0352    8.8187 F       1  UNL1       -0.2040
     27 C          62.6292   84.9166   11.1492 C.ar    1  UNL1        0.0951
     28 C          62.9251   83.7835   12.0865 C.ar    1  UNL1        0.1598
     29 F          62.3693   83.7980   13.4797 F       1  UNL1       -0.2026
     30 N          64.0725   81.5028   12.5681 N.pl3   1  UNL1       -0.2166
     31 H          65.0053   81.2498   12.7555 H       1  UNL1        0.1734
     32 S          62.9471   80.7552   13.2197 S.O2    1  UNL1        0.0540
     33 O          63.3565   81.3028   14.5548 O.2     1  UNL1       -0.1545
     34 O          62.5378   80.2076   11.8846 O.2     1  UNL1       -0.1545
     35 C          61.8218   80.0076   13.8713 C.3     1  UNL1        0.1724
     36 C          59.2564   79.9666   14.2806 C.3     1  UNL1        0.0019
     37 C          60.5507   80.7224   14.2228 C.3     1  UNL1        0.0273
@<TRIPOS>BOND
     1    36    37    1
     2    37    35    1
     3    35    32    1
     4    32    33    2
     5    32    34    2
     6    32    30    1
     7    30    22    1
     8    22    23   ar
     9    23    24   ar
    10    24    25   ar
    11    25    26    1
    12    25    27   ar
    13    27    20    1
    14    20    21    2
    15    20     1    1
    16     1     2   ar
    17     2     3   ar
    18     3     4   ar
    19     4     5   ar
    20     5     6   ar
    21     6     7   ar
    22     7    11    1
    23    11    12   ar
    24    12    13   ar
    25    13    14   ar
    26    14    15    1
    27    14    16   ar
    28    16    17   ar
    29     7     8   ar
    30     8     9   ar
    31    27    28   ar
    32    28    29    1
    33    28    22   ar
    34     9     1   ar
    35     9     4    1
    36    17    11   ar
    37    30    31    1
    38     5    10    1
    39    15    18    1
    40    15    19    1
