@<TRIPOS>MOLECULE
*****
 59 65 0 0 0
SMALL
GASTEIGER

@<TRIPOS>ATOM
      1 N          62.7652   84.1527    9.5411 N.3     1  UNL1       -0.1862
      2 C          62.0874   84.2155    8.2045 C.3     1  UNL1        0.1775
      3 C          61.2865   85.4259    7.8258 C.2     1  UNL1        0.2452
      4 O          60.6087   85.4887    6.4892 O.2     1  UNL1       -0.2732
      5 N          61.1634   86.5736    8.7838 N.am    1  UNL1       -0.2541
      6 C          60.3624   87.7840    8.4052 C.3     1  UNL1        0.1577
      7 C          60.2393   88.9316    9.3632 C.2     1  UNL1        0.2445
      8 O          59.4384   90.1420    8.9845 O.2     1  UNL1       -0.2731
      9 N          60.9172   88.8688   10.6999 N.am    1  UNL1       -0.2705
     10 C          61.7181   87.6584   11.0785 C.3     1  UNL1        0.1359
     11 C          61.8412   86.5107   10.1204 C.3     1  UNL1        0.1908
     12 N          62.6421   85.3003   10.4991 N.am    1  UNL1       -0.1863
     13 C          63.3199   85.2375   11.8358 C.2     1  UNL1        0.3191
     14 O          63.1968   86.3851   12.7937 O.2     1  UNL1       -0.2512
     15 N          64.1209   84.0271   12.2144 N.am    1  UNL1       -0.2836
     16 H          64.2017   83.2739   11.5856 H       1  UNL1        0.1513
     17 C          63.5661   82.9422    9.9197 C.3     1  UNL1        0.1188
     18 C          63.1152   81.0464   11.6380 C.2     1  UNL1       -0.0034
     19 C          62.8684   81.6688   10.2957 C.2     1  UNL1       -0.0071
     20 C          59.6846   87.8468    7.0686 C.3     1  UNL1        0.0556
     21 C          59.5644   89.1577    6.3495 C.ar    1  UNL1       -0.0198
     22 C          58.2208   89.8050    6.1896 C.ar    1  UNL1       -0.0011
     23 C          58.1005   91.1158    5.4705 C.ar    1  UNL1        0.0363
     24 C          59.3240   91.7795    4.9113 C.ar    1  UNL1        0.1337
     25 O          59.2038   93.0904    4.1922 O.3     1  UNL1       -0.5055
     26 C          60.6677   91.1322    5.0712 C.ar    1  UNL1        0.0363
     27 C          60.7879   89.8213    5.7903 C.ar    1  UNL1       -0.0011
     28 H          58.3644   93.4947    4.0923 H       1  UNL1        0.2922
     29 C          60.7941   90.0165   11.6578 C.3     1  UNL1        0.1217
     30 C          61.7676   90.1557   12.7905 C.ar    1  UNL1        0.0135
     31 C          61.4287   89.6026   14.1430 C.ar    1  UNL1       -0.0012
     32 C          62.4021   89.7418   15.2757 C.ar    1  UNL1       -0.0002
     33 C          63.7145   90.4341   15.0559 C.ar    1  UNL1        0.0016
     34 C          64.0534   90.9872   13.7034 C.ar    1  UNL1        0.0214
     35 C          65.2610   91.7140   13.1900 C.ar    1  UNL1        0.0721
     36 C          65.0338   92.0240   11.7401 C.ar    1  UNL1        0.0805
     37 N          63.6859   91.4888   11.3574 N.ar    1  UNL1       -0.3241
     38 C          63.0547   91.5786    9.9996 C.3     1  UNL1        0.1305
     39 C          63.0800   90.8480   12.5707 C.ar    1  UNL1        0.0577
     40 C          66.4815   92.0686   13.9868 C.2     1  UNL1        0.2506
     41 O          66.3460   92.4818   15.4224 O.2     1  UNL1       -0.2699
     42 N          67.8374   92.0100   13.3479 N.am    1  UNL1       -0.2729
     43 C          69.0578   92.3645   14.1446 C.3     1  UNL1        0.1152
     44 C          67.9727   91.5967   11.9123 C.3     1  UNL1        0.1111
     45 C          68.6448   92.5091   10.9295 C.3     1  UNL1        0.0939
     46 N          67.8595   93.5956   10.2564 N.3     1  UNL1       -0.2688
     47 C          66.9125   94.4414   11.0551 C.3     1  UNL1        0.0897
     48 C          66.1273   95.5278   10.3820 C.3     1  UNL1        0.0897
     49 N          66.2890   95.7685    8.9103 N.3     1  UNL1       -0.2691
     50 C          65.5038   96.8550    8.2372 C.3     1  UNL1        0.0897
     51 C          67.2360   94.9227    8.1117 C.3     1  UNL1        0.0897
     52 C          68.0212   93.8362    8.7848 C.3     1  UNL1        0.0897
     53 C          64.7987   83.9643   13.5510 C.3     1  UNL1        0.1177
     54 C          64.1850   84.6492   14.7361 C.ar    1  UNL1       -0.0025
     55 C          63.0061   84.0342   15.4303 C.ar    1  UNL1       -0.0026
     56 C          62.3925   84.7191   16.6154 C.ar    1  UNL1       -0.0003
     57 C          62.9577   86.0189   17.1062 C.ar    1  UNL1       -0.0000
     58 C          64.1367   86.6339   16.4119 C.ar    1  UNL1       -0.0003
     59 C          64.7503   85.9490   15.2269 C.ar    1  UNL1       -0.0026
@<TRIPOS>BOND
     1    18    19    2
     2    19    17    1
     3    17     1    1
     4     1     2    1
     5     2     3    1
     6     3     4    2
     7     3     5   am
     8     5     6    1
     9     6    20    1
    10    20    21    1
    11    21    22   ar
    12    22    23   ar
    13    23    24   ar
    14    24    25    1
    15    24    26   ar
    16    26    27   ar
    17     6     7    1
    18     7     8    2
    19     7     9   am
    20     9    29    1
    21    29    30    1
    22    30    31   ar
    23    31    32   ar
    24    32    33   ar
    25    33    34   ar
    26    34    35   ar
    27    35    40    1
    28    40    41    2
    29    40    42   am
    30    42    43    1
    31    42    44    1
    32    44    45    1
    33    45    46    1
    34    46    47    1
    35    47    48    1
    36    48    49    1
    37    49    50    1
    38    49    51    1
    39    51    52    1
    40    35    36   ar
    41    36    37   ar
    42    37    38    1
    43    37    39   ar
    44     9    10    1
    45    11    10    1
    46    11    12    1
    47    12    13   am
    48    13    14    2
    49    13    15   am
    50    15    53    1
    51    53    54    1
    52    54    55   ar
    53    55    56   ar
    54    56    57   ar
    55    57    58   ar
    56    58    59   ar
    57    12     1    1
    58    59    54   ar
    59    11     5    1
    60    27    21   ar
    61    39    30   ar
    62    39    34   ar
    63    52    46    1
    64    25    28    1
    65    15    16    1
@<TRIPOS>MOLECULE
*****
 59 65 0 0 0
SMALL
GASTEIGER

@<TRIPOS>ATOM
      1 N          62.7158   84.0255    9.6183 N.3     1  UNL1       -0.1862
      2 C          61.9934   84.0675    8.3044 C.3     1  UNL1        0.1775
      3 C          61.2670   85.3118    7.8873 C.2     1  UNL1        0.2452
      4 O          60.5446   85.3538    6.5733 O.2     1  UNL1       -0.2732
      5 N          61.2630   86.5142    8.7841 N.am    1  UNL1       -0.2541
      6 C          60.5367   87.7585    8.3669 C.3     1  UNL1        0.1577
      7 C          60.5327   88.9609    9.2637 C.2     1  UNL1        0.2445
      8 O          59.8063   90.2053    8.8466 O.2     1  UNL1       -0.2731
      9 N          61.2551   88.9190   10.5777 N.am    1  UNL1       -0.2705
     10 C          61.9814   87.6746   10.9948 C.3     1  UNL1        0.1359
     11 C          61.9854   86.4722   10.0980 C.3     1  UNL1        0.1908
     12 N          62.7118   85.2279   10.5151 N.am    1  UNL1       -0.1863
     13 C          63.4342   85.1859   11.8291 C.2     1  UNL1        0.3191
     14 O          63.4302   86.3883   12.7258 O.2     1  UNL1       -0.2512
     15 N          64.1605   83.9416   12.2462 N.am    1  UNL1       -0.2836
     16 H          64.1631   83.1524   11.6576 H       1  UNL1        0.1513
     17 C          63.4421   82.7812   10.0354 C.3     1  UNL1        0.1188
     18 C          62.7196   81.0883   11.8690 C.2     1  UNL1       -0.0034
     19 C          62.6688   81.5637   10.4472 C.2     1  UNL1       -0.0071
     20 C          59.8143   87.8005    7.0531 C.3     1  UNL1        0.0556
     21 C          59.6187   89.1090    6.3461 C.ar    1  UNL1       -0.0198
     22 C          60.7893   89.8025    5.7147 C.ar    1  UNL1       -0.0011
     23 C          60.5937   91.1110    5.0078 C.ar    1  UNL1        0.0363
     24 C          59.2276   91.7259    4.9323 C.ar    1  UNL1        0.1337
     25 O          59.0321   93.0343    4.2254 O.3     1  UNL1       -0.5055
     26 C          58.0570   91.0323    5.5638 C.ar    1  UNL1        0.0363
     27 C          58.2526   89.7238    6.2707 C.ar    1  UNL1       -0.0011
     28 H          59.7633   93.4676    3.8309 H       1  UNL1        0.2922
     29 C          61.2511   90.1213   11.4745 C.3     1  UNL1        0.1217
     30 C          62.5056   90.9223   11.6606 C.ar    1  UNL1        0.0135
     31 C          63.0473   91.7419   10.5271 C.ar    1  UNL1       -0.0012
     32 C          64.3018   92.5429   10.7133 C.ar    1  UNL1       -0.0002
     33 C          65.0146   92.5242   12.0329 C.ar    1  UNL1        0.0016
     34 C          64.4729   91.7047   13.1664 C.ar    1  UNL1        0.0214
     35 C          64.9546   91.4919   14.5709 C.ar    1  UNL1        0.0721
     36 C          63.9978   90.5594   15.2528 C.ar    1  UNL1        0.0805
     37 N          62.9248   90.1959   14.2698 N.ar    1  UNL1       -0.3241
     38 C          61.7622   89.2846   14.5304 C.3     1  UNL1        0.1305
     39 C          63.2184   90.9037   12.9803 C.ar    1  UNL1        0.0577
     40 C          66.1783   92.1042   15.1857 C.2     1  UNL1        0.2506
     41 O          66.0892   92.7765   16.5236 O.2     1  UNL1       -0.2699
     42 N          67.4911   92.0440   14.4625 N.am    1  UNL1       -0.2729
     43 C          68.7147   92.6562   15.0771 C.3     1  UNL1        0.1152
     44 C          67.5801   91.3716   13.1245 C.3     1  UNL1        0.1111
     45 C          68.5915   91.8348   12.1183 C.3     1  UNL1        0.0939
     46 N          68.1766   92.7500   11.0046 N.3     1  UNL1       -0.2688
     47 C          68.5552   92.4285    9.5892 C.3     1  UNL1        0.0897
     48 C          68.1403   93.3438    8.4755 C.3     1  UNL1        0.0897
     49 N          67.3470   94.5805    8.7773 N.3     1  UNL1       -0.2691
     50 C          66.9321   95.4958    7.6636 C.3     1  UNL1        0.0897
     51 C          66.9684   94.9020   10.1927 C.3     1  UNL1        0.0897
     52 C          67.3833   93.9867   11.3063 C.3     1  UNL1        0.0897
     53 C          64.8829   83.8996   13.5601 C.3     1  UNL1        0.1177
     54 C          64.3108   84.6057   14.7534 C.ar    1  UNL1       -0.0025
     55 C          64.8525   85.9426   15.1648 C.ar    1  UNL1       -0.0026
     56 C          64.2804   86.6487   16.3582 C.ar    1  UNL1       -0.0003
     57 C          63.1666   86.0180   17.1401 C.ar    1  UNL1       -0.0000
     58 C          62.6248   84.6811   16.7287 C.ar    1  UNL1       -0.0003
     59 C          63.1969   83.9750   15.5354 C.ar    1  UNL1       -0.0026
@<TRIPOS>BOND
     1    18    19    2
     2    19    17    1
     3    17     1    1
     4     1     2    1
     5     2     3    1
     6     3     4    2
     7     3     5   am
     8     5     6    1
     9     6    20    1
    10    20    21    1
    11    21    22   ar
    12    22    23   ar
    13    23    24   ar
    14    24    25    1
    15    24    26   ar
    16    26    27   ar
    17     6     7    1
    18     7     8    2
    19     7     9   am
    20     9    29    1
    21    29    30    1
    22    30    31   ar
    23    31    32   ar
    24    32    33   ar
    25    33    34   ar
    26    34    35   ar
    27    35    40    1
    28    40    41    2
    29    40    42   am
    30    42    43    1
    31    42    44    1
    32    44    45    1
    33    45    46    1
    34    46    47    1
    35    47    48    1
    36    48    49    1
    37    49    50    1
    38    49    51    1
    39    51    52    1
    40    35    36   ar
    41    36    37   ar
    42    37    38    1
    43    37    39   ar
    44     9    10    1
    45    11    10    1
    46    11    12    1
    47    12    13   am
    48    13    14    2
    49    13    15   am
    50    15    53    1
    51    53    54    1
    52    54    55   ar
    53    55    56   ar
    54    56    57   ar
    55    57    58   ar
    56    58    59   ar
    57    12     1    1
    58    59    54   ar
    59    11     5    1
    60    27    21   ar
    61    39    30   ar
    62    39    34   ar
    63    52    46    1
    64    25    28    1
    65    15    16    1
@<TRIPOS>MOLECULE
*****
 59 65 0 0 0
SMALL
GASTEIGER

@<TRIPOS>ATOM
      1 N          61.3224   85.7785    7.9578 N.3     1  UNL1       -0.1862
      2 C          62.2937   84.7268    8.4055 C.3     1  UNL1        0.1775
      3 C          62.9193   84.8139    9.7660 C.2     1  UNL1        0.2452
      4 O          63.8906   83.7621   10.2136 O.2     1  UNL1       -0.2732
      5 N          62.5736   85.9527   10.6789 N.am    1  UNL1       -0.2541
      6 C          63.1992   86.0399   12.0394 C.3     1  UNL1        0.1577
      7 C          62.8535   87.1787   12.9523 C.2     1  UNL1        0.2445
      8 O          63.4791   87.2658   14.3129 O.2     1  UNL1       -0.2731
      9 N          61.8821   88.2305   12.5047 N.am    1  UNL1       -0.2705
     10 C          61.2565   88.1434   11.1442 C.3     1  UNL1        0.1359
     11 C          61.6023   87.0045   10.2313 C.3     1  UNL1        0.1908
     12 N          60.9767   86.9173    8.8708 N.am    1  UNL1       -0.1863
     13 C          60.0053   87.9691    8.4232 C.2     1  UNL1        0.3191
     14 O          59.6596   89.1080    9.3361 O.2     1  UNL1       -0.2512
     15 N          59.3797   87.8820    7.0626 N.am    1  UNL1       -0.2836
     16 H          59.6066   87.1345    6.4635 H       1  UNL1        0.1513
     17 C          60.6968   85.6913    6.5973 C.3     1  UNL1        0.1188
     18 C          62.2653   84.2776    5.0837 C.2     1  UNL1       -0.0034
     19 C          60.9321   84.4835    5.7396 C.2     1  UNL1       -0.0071
     20 C          64.1705   84.9881   12.4870 C.3     1  UNL1        0.0556
     21 C          63.6663   83.6938   13.0531 C.ar    1  UNL1       -0.0198
     22 C          62.4846   83.6890   13.9770 C.ar    1  UNL1       -0.0011
     23 C          61.9805   82.3946   14.5431 C.ar    1  UNL1        0.0363
     24 C          62.6580   81.1051   14.1853 C.ar    1  UNL1        0.1337
     25 O          62.1538   79.8107   14.7514 O.3     1  UNL1       -0.5055
     26 C          63.8398   81.1099   13.2615 C.ar    1  UNL1        0.0363
     27 C          64.3439   82.4042   12.6954 C.ar    1  UNL1       -0.0011
     28 H          61.4157   79.8077   15.3285 H       1  UNL1        0.2922
     29 C          61.5364   89.3694   13.4177 C.3     1  UNL1        0.1217
     30 C          62.5515   89.8806   14.3966 C.ar    1  UNL1        0.0135
     31 C          62.4181   89.5542   15.8546 C.ar    1  UNL1       -0.0012
     32 C          63.4331   90.0654   16.8335 C.ar    1  UNL1       -0.0002
     33 C          64.5815   90.9030   16.3545 C.ar    1  UNL1        0.0016
     34 C          64.7149   91.2294   14.8966 C.ar    1  UNL1        0.0214
     35 C          65.7324   92.0266   14.1355 C.ar    1  UNL1        0.0721
     36 C          65.3462   92.0080   12.6862 C.ar    1  UNL1        0.0805
     37 N          64.0901   91.1995   12.5516 N.ar    1  UNL1       -0.3241
     38 C          63.3535   90.9209   11.2750 C.3     1  UNL1        0.1305
     39 C          63.6999   90.7182   13.9176 C.ar    1  UNL1        0.0577
     40 C          66.9265   92.7205   14.7210 C.2     1  UNL1        0.2506
     41 O          66.7446   93.7363   15.8096 O.2     1  UNL1       -0.2699
     42 N          68.3025   92.3986   14.2179 N.am    1  UNL1       -0.2729
     43 C          69.4965   93.0924   14.8033 C.3     1  UNL1        0.1152
     44 C          68.4843   91.3827   13.1293 C.3     1  UNL1        0.1111
     45 C          69.1759   91.7653   11.8544 C.3     1  UNL1        0.0939
     46 N          68.4984   92.6824   10.8797 N.3     1  UNL1       -0.2688
     47 C          68.8810   92.6505    9.4296 C.3     1  UNL1        0.0897
     48 C          68.2035   93.5675    8.4549 C.3     1  UNL1        0.0897
     49 N          67.1436   94.5165    8.9302 N.3     1  UNL1       -0.2691
     50 C          66.4661   95.4336    7.9556 C.3     1  UNL1        0.0897
     51 C          66.7611   94.5484   10.3803 C.3     1  UNL1        0.0897
     52 C          67.4385   93.6313   11.3550 C.3     1  UNL1        0.0897
     53 C          58.4084   88.9337    6.6150 C.3     1  UNL1        0.1177
     54 C          58.8814   90.0825    5.7744 C.ar    1  UNL1       -0.0025
     55 C          60.3441   90.2493    5.4872 C.ar    1  UNL1       -0.0026
     56 C          60.8172   91.3981    4.6465 C.ar    1  UNL1       -0.0003
     57 C          59.8274   92.3799    4.0931 C.ar    1  UNL1       -0.0000
     58 C          58.3646   92.2131    4.3803 C.ar    1  UNL1       -0.0003
     59 C          57.8916   91.0644    5.2210 C.ar    1  UNL1       -0.0026
@<TRIPOS>BOND
     1    18    19    2
     2    19    17    1
     3    17     1    1
     4     1     2    1
     5     2     3    1
     6     3     4    2
     7     3     5   am
     8     5     6    1
     9     6    20    1
    10    20    21    1
    11    21    22   ar
    12    22    23   ar
    13    23    24   ar
    14    24    25    1
    15    24    26   ar
    16    26    27   ar
    17     6     7    1
    18     7     8    2
    19     7     9   am
    20     9    29    1
    21    29    30    1
    22    30    31   ar
    23    31    32   ar
    24    32    33   ar
    25    33    34   ar
    26    34    35   ar
    27    35    40    1
    28    40    41    2
    29    40    42   am
    30    42    43    1
    31    42    44    1
    32    44    45    1
    33    45    46    1
    34    46    47    1
    35    47    48    1
    36    48    49    1
    37    49    50    1
    38    49    51    1
    39    51    52    1
    40    35    36   ar
    41    36    37   ar
    42    37    38    1
    43    37    39   ar
    44     9    10    1
    45    11    10    1
    46    11    12    1
    47    12    13   am
    48    13    14    2
    49    13    15   am
    50    15    53    1
    51    53    54    1
    52    54    55   ar
    53    55    56   ar
    54    56    57   ar
    55    57    58   ar
    56    58    59   ar
    57    12     1    1
    58    59    54   ar
    59    11     5    1
    60    27    21   ar
    61    39    30   ar
    62    39    34   ar
    63    52    46    1
    64    25    28    1
    65    15    16    1
