@<TRIPOS>MOLECULE
*****
 35 38 0 0 0
SMALL
GASTEIGER

@<TRIPOS>ATOM
      1 N          63.2559   89.4924   14.3814 N.pl3   1  UNL1       -0.3315
      2 H          62.4428   89.6479   14.9142 H       1  UNL1        0.1469
      3 C          63.4562   90.2243   13.0874 C.ar    1  UNL1        0.0477
      4 C          62.6218   89.8746   11.8910 C.ar    1  UNL1        0.0144
      5 C          62.8221   90.6066   10.5972 C.ar    1  UNL1        0.0028
      6 C          63.8568   91.6882   10.4997 C.ar    1  UNL1        0.0193
      7 C          64.6912   92.0379   11.6962 C.ar    1  UNL1        0.0855
      8 C          64.4909   91.3059   12.9900 C.ar    1  UNL1        0.0517
      9 C          65.4553   91.8657   13.9934 C.ar    1  UNL1        0.1232
     10 N          66.2517   92.9435   13.3196 N.ar    1  UNL1       -0.1635
     11 N          65.7794   93.0500   11.8998 N.ar    1  UNL1       -0.2296
     12 C          66.3034   94.0014   10.8654 C.ar    1  UNL1        0.0829
     13 C          67.2590   93.5166    9.8159 C.ar    1  UNL1        0.0215
     14 C          67.7830   94.4680    8.7814 C.ar    1  UNL1        0.0312
     15 C          67.3512   95.9045    8.7964 C.ar    1  UNL1        0.1402
     16 F          67.8752   96.8560    7.7619 F       1  UNL1       -0.2042
     17 C          66.3956   96.3894    9.8459 C.ar    1  UNL1        0.0312
     18 C          65.8716   95.4379   10.8803 C.ar    1  UNL1        0.0215
     19 C          64.2945   88.5234   14.8635 C.3     1  UNL1        0.1046
     20 C          64.0530   87.0473   14.7506 C.3     1  UNL1        0.0950
     21 C          63.9911   86.2008   15.9874 C.3     1  UNL1        0.0206
     22 N          63.8733   86.4177   13.4010 N.3     1  UNL1       -0.1791
     23 H          63.1293   86.9342   12.9319 H       1  UNL1        0.1488
     24 S          63.5254   84.9627   13.2925 S.O2    1  UNL1        0.0596
     25 O          64.9214   84.5983   13.7025 O.2     1  UNL1       -0.1530
     26 O          62.1293   85.3271   12.8825 O.2     1  UNL1       -0.1530
     27 C          62.1335   79.1426   12.8586 C.3     1  UNL1        0.0310
     28 C          62.4815   80.5976   12.9671 C.ar    1  UNL1       -0.0224
     29 C          62.2193   81.3382   14.2449 C.ar    1  UNL1       -0.0072
     30 C          62.5672   82.7932   14.3534 C.ar    1  UNL1       -0.0039
     31 C          62.3051   83.5338   15.6312 C.3     1  UNL1        0.0324
     32 C          63.1774   83.5077   13.1840 C.ar    1  UNL1        0.1140
     33 C          63.4396   82.7671   11.9062 C.ar    1  UNL1       -0.0039
     34 C          64.0497   83.4815   10.7369 C.3     1  UNL1        0.0324
     35 C          63.0916   81.3120   11.7978 C.ar    1  UNL1       -0.0072
@<TRIPOS>BOND
     1    27    28    1
     2    28    29   ar
     3    29    30   ar
     4    30    31    1
     5    30    32   ar
     6    32    24    1
     7    24    25    2
     8    24    26    2
     9    24    22    1
    10    22    20    1
    11    20    21    1
    12    20    19    1
    13    19     1    1
    14     1     3    1
    15     3     4   ar
    16     4     5   ar
    17     5     6   ar
    18     6     7   ar
    19     7     8   ar
    20     8     9   ar
    21     9    10   ar
    22    10    11   ar
    23    11    12    1
    24    12    13   ar
    25    13    14   ar
    26    14    15   ar
    27    15    16    1
    28    15    17   ar
    29    17    18   ar
    30    32    33   ar
    31    33    34    1
    32    33    35   ar
    33    35    28   ar
    34     8     3   ar
    35    18    12   ar
    36    11     7   ar
    37    22    23    1
    38     1     2    1
@<TRIPOS>MOLECULE
*****
 35 38 0 0 0
SMALL
GASTEIGER

@<TRIPOS>ATOM
      1 N          63.2264   89.4427   14.3899 N.pl3   1  UNL1       -0.3315
      2 H          62.4042   89.5928   14.9103 H       1  UNL1        0.1469
      3 C          63.4359   90.1671   13.0932 C.ar    1  UNL1        0.0477
      4 C          62.6359   89.7856   11.8831 C.ar    1  UNL1        0.0144
      5 C          62.8456   90.5100   10.5865 C.ar    1  UNL1        0.0028
      6 C          63.8552   91.6160   10.5000 C.ar    1  UNL1        0.0193
      7 C          64.6552   91.9976   11.7101 C.ar    1  UNL1        0.0855
      8 C          64.4455   91.2731   13.0067 C.ar    1  UNL1        0.0517
      9 C          65.3744   91.8660   14.0244 C.ar    1  UNL1        0.1232
     10 N          66.1581   92.9569   13.3568 N.ar    1  UNL1       -0.1635
     11 N          65.7136   93.0382   11.9264 N.ar    1  UNL1       -0.2296
     12 C          66.2357   93.9926   10.8937 C.ar    1  UNL1        0.0829
     13 C          65.8039   95.4289   10.9134 C.ar    1  UNL1        0.0215
     14 C          66.3261   96.3833    9.8807 C.ar    1  UNL1        0.0312
     15 C          67.2802   95.9013    8.8283 C.ar    1  UNL1        0.1402
     16 F          67.8024   96.8557    7.7956 F       1  UNL1       -0.2042
     17 C          67.7120   94.4650    8.8086 C.ar    1  UNL1        0.0312
     18 C          67.1898   93.5106    9.8413 C.ar    1  UNL1        0.0215
     19 C          64.2694   88.4895   14.8935 C.3     1  UNL1        0.1046
     20 C          64.0506   87.0099   14.7801 C.3     1  UNL1        0.0950
     21 C          63.9722   86.1663   16.0179 C.3     1  UNL1        0.0206
     22 N          63.9103   86.3739   13.4288 N.3     1  UNL1       -0.1791
     23 H          63.1853   86.8926   12.9331 H       1  UNL1        0.1488
     24 S          63.5562   84.9206   13.3171 S.O2    1  UNL1        0.0596
     25 O          64.9265   84.5495   13.8013 O.2     1  UNL1       -0.1530
     26 O          62.1859   85.2917   12.8329 O.2     1  UNL1       -0.1530
     27 C          62.1399   79.1074   12.8701 C.3     1  UNL1        0.0310
     28 C          62.4940   80.5607   12.9818 C.ar    1  UNL1       -0.0224
     29 C          63.2193   81.2442   11.8608 C.ar    1  UNL1       -0.0072
     30 C          63.5734   82.6975   11.9726 C.ar    1  UNL1       -0.0039
     31 C          64.2987   83.3811   10.8516 C.3     1  UNL1        0.0324
     32 C          63.2021   83.4673   13.2054 C.ar    1  UNL1        0.1140
     33 C          62.4768   82.7837   14.3264 C.ar    1  UNL1       -0.0039
     34 C          62.1056   83.5535   15.5591 C.3     1  UNL1        0.0324
     35 C          62.1227   81.3304   14.2146 C.ar    1  UNL1       -0.0072
@<TRIPOS>BOND
     1    27    28    1
     2    28    29   ar
     3    29    30   ar
     4    30    31    1
     5    30    32   ar
     6    32    24    1
     7    24    25    2
     8    24    26    2
     9    24    22    1
    10    22    20    1
    11    20    21    1
    12    20    19    1
    13    19     1    1
    14     1     3    1
    15     3     4   ar
    16     4     5   ar
    17     5     6   ar
    18     6     7   ar
    19     7     8   ar
    20     8     9   ar
    21     9    10   ar
    22    10    11   ar
    23    11    12    1
    24    12    13   ar
    25    13    14   ar
    26    14    15   ar
    27    15    16    1
    28    15    17   ar
    29    17    18   ar
    30    32    33   ar
    31    33    34    1
    32    33    35   ar
    33    35    28   ar
    34     8     3   ar
    35    18    12   ar
    36    11     7   ar
    37    22    23    1
    38     1     2    1
@<TRIPOS>MOLECULE
*****
 35 38 0 0 0
SMALL
GASTEIGER

@<TRIPOS>ATOM
      1 N          60.8812   89.3590   11.8041 N.pl3   1  UNL1       -0.3315
      2 H          60.1068   89.6814   12.3195 H       1  UNL1        0.1469
      3 C          62.1319   90.1842   11.7343 C.ar    1  UNL1        0.0477
      4 C          62.5121   90.8627   10.4518 C.ar    1  UNL1        0.0144
      5 C          63.7627   91.6879   10.3820 C.ar    1  UNL1        0.0028
      6 C          64.6332   91.8346   11.5948 C.ar    1  UNL1        0.0193
      7 C          64.2529   91.1561   12.8773 C.ar    1  UNL1        0.0855
      8 C          63.0023   90.3309   12.9471 C.ar    1  UNL1        0.0517
      9 C          62.8849   89.7838   14.3389 C.ar    1  UNL1        0.1232
     10 N          64.0631   90.2709   15.1293 N.ar    1  UNL1       -0.1635
     11 N          64.9085   91.1190   14.2260 N.ar    1  UNL1       -0.2296
     12 C          66.1854   91.8090   14.6048 C.ar    1  UNL1        0.0829
     13 C          66.2616   92.6002   15.8768 C.ar    1  UNL1        0.0215
     14 C          67.5385   93.2901   16.2557 C.ar    1  UNL1        0.0312
     15 C          68.7393   93.1889   15.3624 C.ar    1  UNL1        0.1402
     16 F          70.0162   93.8788   15.7412 F       1  UNL1       -0.2042
     17 C          68.6631   92.3977   14.0904 C.ar    1  UNL1        0.0312
     18 C          67.3862   91.7077   13.7115 C.ar    1  UNL1        0.0215
     19 C          60.8105   88.0424   11.0887 C.3     1  UNL1        0.1046
     20 C          62.0630   87.2553   10.8409 C.3     1  UNL1        0.0950
     21 C          62.5370   87.0224    9.4369 C.3     1  UNL1        0.0206
     22 N          62.8417   86.7011   11.9970 N.3     1  UNL1       -0.1791
     23 H          63.8204   86.9369   11.8329 H       1  UNL1        0.1488
     24 S          62.7947   85.2323   12.2976 S.O2    1  UNL1        0.0596
     25 O          61.5568   85.1006   11.4609 O.2     1  UNL1       -0.1530
     26 O          64.0326   85.3640   13.1344 O.2     1  UNL1       -0.1530
     27 C          62.6069   79.3570   13.5000 C.3     1  UNL1        0.0310
     28 C          62.6539   80.8258   13.1994 C.ar    1  UNL1       -0.0224
     29 C          63.1252   81.3020   11.8574 C.ar    1  UNL1       -0.0072
     30 C          63.1721   82.7708   11.5567 C.ar    1  UNL1       -0.0039
     31 C          63.6435   83.2470   10.2147 C.3     1  UNL1        0.0324
     32 C          62.7478   83.7635   12.5982 C.ar    1  UNL1        0.1140
     33 C          62.2764   83.2873   13.9403 C.ar    1  UNL1       -0.0039
     34 C          61.8521   84.2799   14.9817 C.3     1  UNL1        0.0324
     35 C          62.2295   81.8184   14.2408 C.ar    1  UNL1       -0.0072
@<TRIPOS>BOND
     1    27    28    1
     2    28    29   ar
     3    29    30   ar
     4    30    31    1
     5    30    32   ar
     6    32    24    1
     7    24    25    2
     8    24    26    2
     9    24    22    1
    10    22    20    1
    11    20    21    1
    12    20    19    1
    13    19     1    1
    14     1     3    1
    15     3     4   ar
    16     4     5   ar
    17     5     6   ar
    18     6     7   ar
    19     7     8   ar
    20     8     9   ar
    21     9    10   ar
    22    10    11   ar
    23    11    12    1
    24    12    13   ar
    25    13    14   ar
    26    14    15   ar
    27    15    16    1
    28    15    17   ar
    29    17    18   ar
    30    32    33   ar
    31    33    34    1
    32    33    35   ar
    33    35    28   ar
    34     8     3   ar
    35    18    12   ar
    36    11     7   ar
    37    22    23    1
    38     1     2    1
@<TRIPOS>MOLECULE
*****
 35 38 0 0 0
SMALL
GASTEIGER

@<TRIPOS>ATOM
      1 N          63.8473   90.7657   13.1695 N.pl3   1  UNL1       -0.3315
      2 H          63.2636   91.5584   13.1847 H       1  UNL1        0.1469
      3 C          63.3726   89.4969   12.5254 C.ar    1  UNL1        0.0477
      4 C          62.6521   89.5470   11.2108 C.ar    1  UNL1        0.0144
      5 C          62.1774   88.2782   10.5669 C.ar    1  UNL1        0.0028
      6 C          62.4232   86.9592   11.2376 C.ar    1  UNL1        0.0193
      7 C          63.1437   86.9090   12.5522 C.ar    1  UNL1        0.0855
      8 C          63.6184   88.1779   13.1961 C.ar    1  UNL1        0.0517
      9 C          64.2958   87.8182   14.4853 C.ar    1  UNL1        0.1232
     10 N          64.2397   86.3271   14.6381 N.ar    1  UNL1       -0.1635
     11 N          63.5277   85.7652   13.4433 N.ar    1  UNL1       -0.2296
     12 C          63.2486   84.3142   13.1851 C.ar    1  UNL1        0.0829
     13 C          63.6978   83.6808   11.9017 C.ar    1  UNL1        0.0215
     14 C          63.4188   82.2298   11.6435 C.ar    1  UNL1        0.0312
     15 C          62.6905   81.4121   12.6686 C.ar    1  UNL1        0.1402
     16 F          62.4114   79.9611   12.4103 F       1  UNL1       -0.2042
     17 C          62.2412   82.0455   13.9519 C.ar    1  UNL1        0.0312
     18 C          62.5203   83.4965   14.2102 C.ar    1  UNL1        0.0215
     19 C          65.2114   90.8269   13.7903 C.3     1  UNL1        0.1046
     20 C          66.1136   91.9909   13.5055 C.3     1  UNL1        0.0950
     21 C          67.6023   91.8193   13.5700 C.3     1  UNL1        0.0206
     22 N          65.5270   93.3266   13.1562 N.3     1  UNL1       -0.1791
     23 H          64.5179   93.1956   13.0854 H       1  UNL1        0.1488
     24 S          65.9608   94.0324   11.9058 S.O2    1  UNL1        0.0596
     25 O          65.0333   93.1730   11.0990 O.2     1  UNL1       -0.1530
     26 O          66.8884   94.8917   12.7127 O.2     1  UNL1       -0.1530
     27 C          67.6962   96.8556    6.9041 C.3     1  UNL1        0.0310
     28 C          67.2623   96.1498    8.1545 C.ar    1  UNL1       -0.0224
     29 C          67.7238   94.7480    8.4231 C.ar    1  UNL1       -0.0072
     30 C          67.2900   94.0422    9.6735 C.ar    1  UNL1       -0.0039
     31 C          67.7515   92.6405    9.9421 C.3     1  UNL1        0.0324
     32 C          66.3946   94.7382   10.6554 C.ar    1  UNL1        0.1140
     33 C          65.9332   96.1399   10.3868 C.ar    1  UNL1       -0.0039
     34 C          65.0378   96.8359   11.3686 C.3     1  UNL1        0.0324
     35 C          66.3670   96.8457    9.1363 C.ar    1  UNL1       -0.0072
@<TRIPOS>BOND
     1    27    28    1
     2    28    29   ar
     3    29    30   ar
     4    30    31    1
     5    30    32   ar
     6    32    24    1
     7    24    25    2
     8    24    26    2
     9    24    22    1
    10    22    20    1
    11    20    21    1
    12    20    19    1
    13    19     1    1
    14     1     3    1
    15     3     4   ar
    16     4     5   ar
    17     5     6   ar
    18     6     7   ar
    19     7     8   ar
    20     8     9   ar
    21     9    10   ar
    22    10    11   ar
    23    11    12    1
    24    12    13   ar
    25    13    14   ar
    26    14    15   ar
    27    15    16    1
    28    15    17   ar
    29    17    18   ar
    30    32    33   ar
    31    33    34    1
    32    33    35   ar
    33    35    28   ar
    34     8     3   ar
    35    18    12   ar
    36    11     7   ar
    37    22    23    1
    38     1     2    1
@<TRIPOS>MOLECULE
*****
 35 38 0 0 0
SMALL
GASTEIGER

@<TRIPOS>ATOM
      1 N          64.2144   89.7510   14.8597 N.pl3   1  UNL1       -0.3315
      2 H          64.4399   89.4141   15.7568 H       1  UNL1        0.1469
      3 C          63.7525   88.8000   13.7956 C.ar    1  UNL1        0.0477
      4 C          63.0625   89.3227   12.5706 C.ar    1  UNL1        0.0144
      5 C          62.6006   88.3717   11.5066 C.ar    1  UNL1        0.0028
      6 C          62.8289   86.8979   11.6675 C.ar    1  UNL1        0.0193
      7 C          63.5189   86.3752   12.8924 C.ar    1  UNL1        0.0855
      8 C          63.9807   87.3262   13.9564 C.ar    1  UNL1        0.0517
      9 C          64.6277   86.5238   15.0463 C.ar    1  UNL1        0.1232
     10 N          64.5657   85.0769   14.6557 N.ar    1  UNL1       -0.1635
     11 N          63.8804   84.9850   13.3246 N.ar    1  UNL1       -0.2296
     12 C          63.6050   83.7243   12.5598 C.ar    1  UNL1        0.0829
     13 C          62.7038   82.6759   13.1416 C.ar    1  UNL1        0.0215
     14 C          62.4284   81.4152   12.3769 C.ar    1  UNL1        0.0312
     15 C          63.0542   81.2030   11.0302 C.ar    1  UNL1        0.1402
     16 F          62.7787   79.9423   10.2655 F       1  UNL1       -0.2042
     17 C          63.9553   82.2515   10.4485 C.ar    1  UNL1        0.0312
     18 C          64.2308   83.5121   11.2132 C.ar    1  UNL1        0.0215
     19 C          64.3327   91.2153   14.5568 C.3     1  UNL1        0.1046
     20 C          65.6812   91.8230   14.3073 C.3     1  UNL1        0.0950
     21 C          66.2768   92.7649   15.3113 C.3     1  UNL1        0.0206
     22 N          66.4342   91.4888   13.0537 N.3     1  UNL1       -0.1791
     23 H          67.3498   91.1449   13.3430 H       1  UNL1        0.1488
     24 S          66.6763   92.5478   12.0194 S.O2    1  UNL1        0.0596
     25 O          65.2620   92.4040   11.5410 O.2     1  UNL1       -0.1530
     26 O          68.0906   92.6917   12.4978 O.2     1  UNL1       -0.1530
     27 C          67.6450   96.7840    7.8822 C.3     1  UNL1        0.0310
     28 C          67.4028   95.7249    8.9165 C.ar    1  UNL1       -0.0224
     29 C          66.8141   96.0953   10.2455 C.ar    1  UNL1       -0.0072
     30 C          66.5719   95.0362   11.2798 C.ar    1  UNL1       -0.0039
     31 C          65.9832   95.4066   12.6088 C.3     1  UNL1        0.0324
     32 C          66.9185   93.6068   10.9851 C.ar    1  UNL1        0.1140
     33 C          67.5072   93.2365    9.6561 C.ar    1  UNL1       -0.0039
     34 C          67.8538   91.8072    9.3614 C.3     1  UNL1        0.0324
     35 C          67.7494   94.2956    8.6218 C.ar    1  UNL1       -0.0072
@<TRIPOS>BOND
     1    27    28    1
     2    28    29   ar
     3    29    30   ar
     4    30    31    1
     5    30    32   ar
     6    32    24    1
     7    24    25    2
     8    24    26    2
     9    24    22    1
    10    22    20    1
    11    20    21    1
    12    20    19    1
    13    19     1    1
    14     1     3    1
    15     3     4   ar
    16     4     5   ar
    17     5     6   ar
    18     6     7   ar
    19     7     8   ar
    20     8     9   ar
    21     9    10   ar
    22    10    11   ar
    23    11    12    1
    24    12    13   ar
    25    13    14   ar
    26    14    15   ar
    27    15    16    1
    28    15    17   ar
    29    17    18   ar
    30    32    33   ar
    31    33    34    1
    32    33    35   ar
    33    35    28   ar
    34     8     3   ar
    35    18    12   ar
    36    11     7   ar
    37    22    23    1
    38     1     2    1
@<TRIPOS>MOLECULE
*****
 35 38 0 0 0
SMALL
GASTEIGER

@<TRIPOS>ATOM
      1 N          61.9719   90.6089   10.6401 N.pl3   1  UNL1       -0.3315
      2 H          61.3363   91.1563   11.1555 H       1  UNL1        0.1469
      3 C          61.6980   89.1508   10.4182 C.ar    1  UNL1        0.0477
      4 C          60.8032   88.7182    9.2948 C.ar    1  UNL1        0.0144
      5 C          60.5294   87.2602    9.0730 C.ar    1  UNL1        0.0028
      6 C          61.1503   86.2348    9.9747 C.ar    1  UNL1        0.0193
      7 C          62.0451   86.6674   11.0981 C.ar    1  UNL1        0.0855
      8 C          62.3190   88.1254   11.3199 C.ar    1  UNL1        0.0517
      9 C          63.2359   88.2506   12.5005 C.ar    1  UNL1        0.1232
     10 N          63.5287   86.8699   13.0083 N.ar    1  UNL1       -0.1635
     11 N          62.7928   85.8914   12.1416 N.ar    1  UNL1       -0.2296
     12 C          62.8027   84.3990   12.2919 C.ar    1  UNL1        0.0829
     13 C          62.4371   83.7751   13.6060 C.ar    1  UNL1        0.0215
     14 C          62.4470   82.2827   13.7564 C.ar    1  UNL1        0.0312
     15 C          62.8227   81.4142   12.5926 C.ar    1  UNL1        0.1402
     16 F          62.8327   79.9218   12.7429 F       1  UNL1       -0.2042
     17 C          63.1884   82.0381   11.2785 C.ar    1  UNL1        0.0312
     18 C          63.1784   83.5305   11.1281 C.ar    1  UNL1        0.0215
     19 C          63.2141   91.2328   10.0766 C.3     1  UNL1        0.1046
     20 C          64.2082   91.8835   10.9922 C.3     1  UNL1        0.0950
     21 C          65.3136   92.7233   10.4240 C.3     1  UNL1        0.0206
     22 N          64.0969   91.6945   12.4762 N.3     1  UNL1       -0.1791
     23 H          63.3841   92.3465   12.8034 H       1  UNL1        0.1488
     24 S          65.2998   91.8935   13.3499 S.O2    1  UNL1        0.0596
     25 O          65.2302   90.4562   13.7731 O.2     1  UNL1       -0.1530
     26 O          65.3694   93.3308   12.9266 O.2     1  UNL1       -0.1530
     27 C          70.1113   92.6898   16.8448 C.3     1  UNL1        0.0310
     28 C          68.9085   92.4907   15.9711 C.ar    1  UNL1       -0.0224
     29 C          67.5314   92.5774   16.5595 C.ar    1  UNL1       -0.0072
     30 C          66.3286   92.3783   15.6858 C.ar    1  UNL1       -0.0039
     31 C          64.9515   92.4650   16.2743 C.3     1  UNL1        0.0324
     32 C          66.5027   92.0926   14.2236 C.ar    1  UNL1        0.1140
     33 C          67.8797   92.0059   13.6351 C.ar    1  UNL1       -0.0039
     34 C          68.0539   91.7201   12.1730 C.3     1  UNL1        0.0324
     35 C          69.0826   92.2049   14.5089 C.ar    1  UNL1       -0.0072
@<TRIPOS>BOND
     1    27    28    1
     2    28    29   ar
     3    29    30   ar
     4    30    31    1
     5    30    32   ar
     6    32    24    1
     7    24    25    2
     8    24    26    2
     9    24    22    1
    10    22    20    1
    11    20    21    1
    12    20    19    1
    13    19     1    1
    14     1     3    1
    15     3     4   ar
    16     4     5   ar
    17     5     6   ar
    18     6     7   ar
    19     7     8   ar
    20     8     9   ar
    21     9    10   ar
    22    10    11   ar
    23    11    12    1
    24    12    13   ar
    25    13    14   ar
    26    14    15   ar
    27    15    16    1
    28    15    17   ar
    29    17    18   ar
    30    32    33   ar
    31    33    34    1
    32    33    35   ar
    33    35    28   ar
    34     8     3   ar
    35    18    12   ar
    36    11     7   ar
    37    22    23    1
    38     1     2    1
@<TRIPOS>MOLECULE
*****
 35 38 0 0 0
SMALL
GASTEIGER

@<TRIPOS>ATOM
      1 N          61.9745   90.5690   10.6481 N.pl3   1  UNL1       -0.3315
      2 H          61.3377   91.1156   11.1627 H       1  UNL1        0.1469
      3 C          61.7016   89.1110   10.4243 C.ar    1  UNL1        0.0477
      4 C          60.8126   88.6789    9.2961 C.ar    1  UNL1        0.0144
      5 C          60.5398   87.2210    9.0724 C.ar    1  UNL1        0.0028
      6 C          61.1560   86.1953    9.9769 C.ar    1  UNL1        0.0193
      7 C          62.0450   86.6274   11.1051 C.ar    1  UNL1        0.0855
      8 C          62.3178   88.0852   11.3288 C.ar    1  UNL1        0.0517
      9 C          63.2287   88.2099   12.5141 C.ar    1  UNL1        0.1232
     10 N          63.5187   86.8289   13.0229 N.ar    1  UNL1       -0.1635
     11 N          62.7872   85.8509   12.1521 N.ar    1  UNL1       -0.2296
     12 C          62.7963   84.3585   12.3020 C.ar    1  UNL1        0.0829
     13 C          62.4266   83.7342   13.6148 C.ar    1  UNL1        0.0215
     14 C          62.4357   82.2418   13.7647 C.ar    1  UNL1        0.0312
     15 C          62.8144   81.3735   12.6016 C.ar    1  UNL1        0.1402
     16 F          62.8235   79.8810   12.7515 F       1  UNL1       -0.2042
     17 C          63.1840   81.9977   11.2888 C.ar    1  UNL1        0.0312
     18 C          63.1750   83.4902   11.1389 C.ar    1  UNL1        0.0215
     19 C          63.2176   91.1939   10.0877 C.3     1  UNL1        0.1046
     20 C          64.1982   91.8646   11.0035 C.3     1  UNL1        0.0950
     21 C          65.2833   92.7308   10.4358 C.3     1  UNL1        0.0206
     22 N          64.0938   91.6690   12.4871 N.3     1  UNL1       -0.1791
     23 H          63.3746   92.3117   12.8189 H       1  UNL1        0.1488
     24 S          65.2970   91.8787   13.3578 S.O2    1  UNL1        0.0596
     25 O          65.3576   93.3146   12.9283 O.2     1  UNL1       -0.1530
     26 O          65.2365   90.4428   13.7873 O.2     1  UNL1       -0.1530
     27 C          70.1102   92.7176   16.8405 C.3     1  UNL1        0.0310
     28 C          68.9069   92.5079   15.9698 C.ar    1  UNL1       -0.0224
     29 C          69.0799   92.2216   14.5076 C.ar    1  UNL1       -0.0072
     30 C          67.8767   92.0119   13.6369 C.ar    1  UNL1       -0.0039
     31 C          68.0497   91.7256   12.1747 C.3     1  UNL1        0.0324
     32 C          66.5003   92.0884   14.2284 C.ar    1  UNL1        0.1140
     33 C          66.3273   92.3747   15.6907 C.ar    1  UNL1       -0.0039
     34 C          64.9510   92.4513   16.2822 C.3     1  UNL1        0.0324
     35 C          67.5307   92.5844   16.5613 C.ar    1  UNL1       -0.0072
@<TRIPOS>BOND
     1    27    28    1
     2    28    29   ar
     3    29    30   ar
     4    30    31    1
     5    30    32   ar
     6    32    24    1
     7    24    25    2
     8    24    26    2
     9    24    22    1
    10    22    20    1
    11    20    21    1
    12    20    19    1
    13    19     1    1
    14     1     3    1
    15     3     4   ar
    16     4     5   ar
    17     5     6   ar
    18     6     7   ar
    19     7     8   ar
    20     8     9   ar
    21     9    10   ar
    22    10    11   ar
    23    11    12    1
    24    12    13   ar
    25    13    14   ar
    26    14    15   ar
    27    15    16    1
    28    15    17   ar
    29    17    18   ar
    30    32    33   ar
    31    33    34    1
    32    33    35   ar
    33    35    28   ar
    34     8     3   ar
    35    18    12   ar
    36    11     7   ar
    37    22    23    1
    38     1     2    1
@<TRIPOS>MOLECULE
*****
 35 38 0 0 0
SMALL
GASTEIGER

@<TRIPOS>ATOM
      1 N          62.0613   90.8044    9.8626 N.pl3   1  UNL1       -0.3315
      2 H          62.5292   91.0756    9.0399 H       1  UNL1        0.1469
      3 C          62.8014   90.7606   11.1666 C.ar    1  UNL1        0.0477
      4 C          62.2790   89.9254   12.2977 C.ar    1  UNL1        0.0144
      5 C          63.0191   89.8817   13.6017 C.ar    1  UNL1        0.0028
      6 C          64.2816   90.6731   13.7745 C.ar    1  UNL1        0.0193
      7 C          64.8039   91.5083   12.6433 C.ar    1  UNL1        0.0855
      8 C          64.0638   91.5521   11.3394 C.ar    1  UNL1        0.0517
      9 C          64.8152   92.4588   10.4101 C.ar    1  UNL1        0.1232
     10 N          66.0196   92.9754   11.1398 N.ar    1  UNL1       -0.1635
     11 N          66.0126   92.3880   12.5200 N.ar    1  UNL1       -0.2296
     12 C          67.0349   92.6366   13.5892 C.ar    1  UNL1        0.0829
     13 C          66.7417   93.6047   14.6967 C.ar    1  UNL1        0.0215
     14 C          67.7639   93.8533   15.7659 C.ar    1  UNL1        0.0312
     15 C          69.0795   93.1337   15.7276 C.ar    1  UNL1        0.1402
     16 F          70.1018   93.3823   16.7967 F       1  UNL1       -0.2042
     17 C          69.3727   92.1656   14.6200 C.ar    1  UNL1        0.0312
     18 C          68.3505   91.9170   13.5508 C.ar    1  UNL1        0.0215
     19 C          60.6084   90.4350    9.8120 C.3     1  UNL1        0.1046
     20 C          60.1963   88.9963    9.9136 C.3     1  UNL1        0.0950
     21 C          59.2453   88.5626   10.9894 C.3     1  UNL1        0.0206
     22 N          60.7354   87.9912    8.9392 N.3     1  UNL1       -0.1791
     23 H          59.9347   87.6136    8.4325 H       1  UNL1        0.1488
     24 S          61.5276   86.8174    9.4337 S.O2    1  UNL1        0.0596
     25 O          60.3466   85.9224    9.2013 O.2     1  UNL1       -0.1530
     26 O          62.7086   87.7125    9.6661 O.2     1  UNL1       -0.1530
     27 C          64.6967   82.1223   11.4116 C.3     1  UNL1        0.0310
     28 C          63.9044   83.2961   10.9172 C.ar    1  UNL1       -0.0224
     29 C          63.1975   84.1887   11.8936 C.ar    1  UNL1       -0.0072
     30 C          62.4053   85.3625   11.3991 C.ar    1  UNL1       -0.0039
     31 C          61.6983   86.2551   12.3756 C.3     1  UNL1        0.0324
     32 C          62.3199   85.6436    9.9281 C.ar    1  UNL1        0.1140
     33 C          63.0268   84.7510    8.9517 C.ar    1  UNL1       -0.0039
     34 C          62.9414   85.0321    7.4808 C.3     1  UNL1        0.0324
     35 C          63.8191   83.5772    9.4462 C.ar    1  UNL1       -0.0072
@<TRIPOS>BOND
     1    27    28    1
     2    28    29   ar
     3    29    30   ar
     4    30    31    1
     5    30    32   ar
     6    32    24    1
     7    24    25    2
     8    24    26    2
     9    24    22    1
    10    22    20    1
    11    20    21    1
    12    20    19    1
    13    19     1    1
    14     1     3    1
    15     3     4   ar
    16     4     5   ar
    17     5     6   ar
    18     6     7   ar
    19     7     8   ar
    20     8     9   ar
    21     9    10   ar
    22    10    11   ar
    23    11    12    1
    24    12    13   ar
    25    13    14   ar
    26    14    15   ar
    27    15    16    1
    28    15    17   ar
    29    17    18   ar
    30    32    33   ar
    31    33    34    1
    32    33    35   ar
    33    35    28   ar
    34     8     3   ar
    35    18    12   ar
    36    11     7   ar
    37    22    23    1
    38     1     2    1
@<TRIPOS>MOLECULE
*****
 35 38 0 0 0
SMALL
GASTEIGER

@<TRIPOS>ATOM
      1 N          63.8146   86.0169   15.0667 N.pl3   1  UNL1       -0.3315
      2 H          63.5710   85.5994   15.9243 H       1  UNL1        0.1469
      3 C          63.7425   85.2206   13.7975 C.ar    1  UNL1        0.0477
      4 C          64.2950   83.8267   13.7543 C.ar    1  UNL1        0.0144
      5 C          64.2229   83.0304   12.4851 C.ar    1  UNL1        0.0028
      6 C          63.5984   83.6281   11.2592 C.ar    1  UNL1        0.0193
      7 C          63.0460   85.0219   11.3024 C.ar    1  UNL1        0.0855
      8 C          63.1181   85.8182   12.5716 C.ar    1  UNL1        0.0517
      9 C          62.4941   87.1579   12.3144 C.ar    1  UNL1        0.1232
     10 N          62.0364   87.1895   10.8863 N.ar    1  UNL1       -0.1635
     11 N          62.3775   85.8694   10.2609 N.ar    1  UNL1       -0.2296
     12 C          62.0989   85.4674    8.8429 C.ar    1  UNL1        0.0829
     13 C          63.1741   84.8193    8.0220 C.ar    1  UNL1        0.0215
     14 C          62.8956   84.4172    6.6040 C.ar    1  UNL1        0.0312
     15 C          61.5418   84.6634    6.0068 C.ar    1  UNL1        0.1402
     16 F          61.2633   84.2613    4.5887 F       1  UNL1       -0.2042
     17 C          60.4666   85.3115    6.8276 C.ar    1  UNL1        0.0312
     18 C          60.7452   85.7135    8.2456 C.ar    1  UNL1        0.0215
     19 C          64.2579   87.4494   15.0291 C.3     1  UNL1        0.1046
     20 C          63.4285   88.5088   15.6922 C.3     1  UNL1        0.0950
     21 C          63.1868   88.4555   17.1716 C.3     1  UNL1        0.0206
     22 N          62.8408   89.6216   14.8759 N.3     1  UNL1       -0.1791
     23 H          62.1052   89.2092   14.3021 H       1  UNL1        0.1488
     24 S          63.7152   90.4172   13.9526 S.O2    1  UNL1        0.0596
     25 O          63.9228   89.2003   13.1006 O.2     1  UNL1       -0.1530
     26 O          63.5077   91.6341   14.8047 O.2     1  UNL1       -0.1530
     27 C          67.2130   93.5994   10.2596 C.3     1  UNL1        0.0310
     28 C          66.3386   92.8039   11.1829 C.ar    1  UNL1       -0.0224
     29 C          66.8069   92.4876   12.5724 C.ar    1  UNL1       -0.0072
     30 C          65.9324   91.6920   13.4956 C.ar    1  UNL1       -0.0039
     31 C          66.4007   91.3758   14.8851 C.3     1  UNL1        0.0324
     32 C          64.5897   91.2127   13.0294 C.ar    1  UNL1        0.1140
     33 C          64.1214   91.5290   11.6399 C.ar    1  UNL1       -0.0039
     34 C          62.7787   91.0498   11.1736 C.3     1  UNL1        0.0324
     35 C          64.9959   92.3246   10.7166 C.ar    1  UNL1       -0.0072
@<TRIPOS>BOND
     1    27    28    1
     2    28    29   ar
     3    29    30   ar
     4    30    31    1
     5    30    32   ar
     6    32    24    1
     7    24    25    2
     8    24    26    2
     9    24    22    1
    10    22    20    1
    11    20    21    1
    12    20    19    1
    13    19     1    1
    14     1     3    1
    15     3     4   ar
    16     4     5   ar
    17     5     6   ar
    18     6     7   ar
    19     7     8   ar
    20     8     9   ar
    21     9    10   ar
    22    10    11   ar
    23    11    12    1
    24    12    13   ar
    25    13    14   ar
    26    14    15   ar
    27    15    16    1
    28    15    17   ar
    29    17    18   ar
    30    32    33   ar
    31    33    34    1
    32    33    35   ar
    33    35    28   ar
    34     8     3   ar
    35    18    12   ar
    36    11     7   ar
    37    22    23    1
    38     1     2    1
