@<TRIPOS>MOLECULE
*****
 33 37 0 0 0
SMALL
GASTEIGER

@<TRIPOS>ATOM
      1 C          61.9923   86.9964   11.3599 C.3     1  UNL1        0.2027
      2 C          62.8377   85.9504   12.0241 C.ar    1  UNL1        0.0163
      3 C          63.5527   85.9261   13.3425 C.ar    1  UNL1        0.0104
      4 C          64.3379   84.7139   13.7476 C.ar    1  UNL1        0.0583
      5 CL         65.0529   84.6895   15.0660 Cl      1  UNL1       -0.0822
      6 C          64.4081   83.5261   12.8343 C.ar    1  UNL1        0.0224
      7 C          63.6931   83.5504   11.5159 C.ar    1  UNL1        0.0544
      8 CL         63.7633   82.3626   10.6026 Cl      1  UNL1       -0.0826
      9 C          62.9079   84.7625   11.1108 C.ar    1  UNL1       -0.0106
     10 C          62.1059   85.0745    9.8822 C.3     1  UNL1        0.0470
     11 C          61.5400   86.4551   10.0362 C.3     1  UNL1        0.1066
     12 N          60.6739   87.1690    9.0411 N.3     1  UNL1       -0.2682
     13 C          59.6368   86.5366    8.1610 C.3     1  UNL1        0.0748
     14 C          59.0147   87.6174    7.3274 C.3     1  UNL1        0.0480
     15 C          59.6674   88.9178    7.6922 C.3     1  UNL1        0.1278
     16 O          59.3503   90.2597    7.1016 O.3     1  UNL1       -0.3830
     17 C          60.6928   88.6406    8.7513 C.3     1  UNL1        0.1018
     18 H          59.9143   90.9344    7.5109 H       1  UNL1        0.2104
     19 O          61.6579   88.3467   11.9211 O.3     1  UNL1       -0.4711
     20 C          64.9194   90.9623   13.5857 C.ar    1  UNL1        0.0686
     21 C          64.6046   89.6490   14.2386 C.ar    1  UNL1        0.0209
     22 C          63.5175   88.7772   13.6836 C.ar    1  UNL1        0.0407
     23 C          62.7450   89.2185   12.4759 C.ar    1  UNL1        0.1662
     24 C          63.0599   90.5319   11.8231 C.ar    1  UNL1        0.1753
     25 F          62.2875   90.9733   10.6154 F       1  UNL1       -0.2009
     26 C          64.1470   91.4037   12.3780 C.ar    1  UNL1        0.0503
     27 C          64.9777   92.2937   16.5645 C.3     1  UNL1        0.0742
     28 C          66.0334   92.4461   15.5098 C.ar    1  UNL1        0.1473
     29 N          67.3012   93.2373   15.6392 N.ar    1  UNL1       -0.1333
     30 N          68.0580   93.1142   14.3499 N.ar    1  UNL1       -0.1333
     31 C          67.2579   92.2470   13.4237 C.ar    1  UNL1        0.1473
     32 C          67.6416   91.8606   12.0261 C.3     1  UNL1        0.0742
     33 N          66.0066   91.8341   14.1406 N.ar    1  UNL1       -0.2806
@<TRIPOS>BOND
     1    27    28    1
     2    28    29   ar
     3    29    30   ar
     4    30    31   ar
     5    31    32    1
     6    31    33   ar
     7    33    20    1
     8    20    21   ar
     9    21    22   ar
    10    22    23   ar
    11    23    19    1
    12     1    19    1
    13     1     2    1
    14     2     3   ar
    15     3     4   ar
    16     4     5    1
    17     4     6   ar
    18     6     7   ar
    19     7     8    1
    20     7     9   ar
    21     9    10    1
    22    10    11    1
    23    11    12    1
    24    12    13    1
    25    13    14    1
    26    14    15    1
    27    15    16    1
    28    15    17    1
    29    23    24   ar
    30    24    25    1
    31    24    26   ar
    32    33    28   ar
    33    26    20   ar
    34    11     1    1
    35    17    12    1
    36     9     2   ar
    37    16    18    1
@<TRIPOS>MOLECULE
*****
 33 37 0 0 0
SMALL
GASTEIGER

@<TRIPOS>ATOM
      1 C          61.8688   88.4453   11.2011 C.3     1  UNL1        0.2027
      2 C          61.1096   88.3658    9.9098 C.ar    1  UNL1        0.0163
      3 C          60.4039   89.4086    9.0947 C.ar    1  UNL1        0.0104
      4 C          59.7166   89.0243    7.8180 C.ar    1  UNL1        0.0583
      5 CL         59.0108   90.0671    7.0028 Cl      1  UNL1       -0.0822
      6 C          59.7351   87.5972    7.3565 C.ar    1  UNL1        0.0224
      7 C          60.4409   86.5544    8.1716 C.ar    1  UNL1        0.0544
      8 CL         60.4594   85.1273    7.7100 Cl      1  UNL1       -0.0826
      9 C          61.1281   86.9387    9.4483 C.ar    1  UNL1       -0.0106
     10 C          61.8987   86.1362   10.4543 C.3     1  UNL1        0.0470
     11 C          62.3565   87.0673   11.5376 C.3     1  UNL1        0.1066
     12 N          63.1608   86.6871   12.7453 N.3     1  UNL1       -0.2682
     13 C          63.8448   87.6365   13.6838 C.3     1  UNL1        0.0748
     14 C          64.5290   86.8270   14.7451 C.3     1  UNL1        0.0480
     15 C          64.2679   85.3771   14.4626 C.3     1  UNL1        0.1278
     16 O          64.7650   84.2173   15.2736 O.3     1  UNL1       -0.3830
     17 C          63.4223   85.2907   13.2267 C.3     1  UNL1        0.1018
     18 H          64.4552   83.3885   14.8763 H       1  UNL1        0.2104
     19 O          62.0997   89.6850   12.0132 O.3     1  UNL1       -0.4711
     20 C          65.2528   92.6410   10.7602 C.ar    1  UNL1        0.0686
     21 C          64.2733   92.1169    9.7523 C.ar    1  UNL1        0.0209
     22 C          63.2223   91.1315   10.1700 C.ar    1  UNL1        0.0407
     23 C          63.1507   90.6703   11.5956 C.ar    1  UNL1        0.1662
     24 C          64.1302   91.1945   12.6034 C.ar    1  UNL1        0.1753
     25 F          64.0588   90.7334   14.0290 F       1  UNL1       -0.2009
     26 C          65.1812   92.1799   12.1857 C.ar    1  UNL1        0.0503
     27 C          64.9340   95.8886   10.7308 C.3     1  UNL1        0.0742
     28 C          66.1573   95.1191   10.3289 C.ar    1  UNL1        0.1473
     29 N          67.4488   95.7073    9.8430 N.ar    1  UNL1       -0.1333
     30 N          68.3935   94.5780    9.5562 N.ar    1  UNL1       -0.1333
     31 C          67.6859   93.2919    9.8649 C.ar    1  UNL1        0.1473
     32 C          68.2596   91.9134    9.7212 C.3     1  UNL1        0.0742
     33 N          66.3038   93.6264   10.3425 N.ar    1  UNL1       -0.2806
@<TRIPOS>BOND
     1    27    28    1
     2    28    29   ar
     3    29    30   ar
     4    30    31   ar
     5    31    32    1
     6    31    33   ar
     7    33    20    1
     8    20    21   ar
     9    21    22   ar
    10    22    23   ar
    11    23    19    1
    12     1    19    1
    13     1     2    1
    14     2     3   ar
    15     3     4   ar
    16     4     5    1
    17     4     6   ar
    18     6     7   ar
    19     7     8    1
    20     7     9   ar
    21     9    10    1
    22    10    11    1
    23    11    12    1
    24    12    13    1
    25    13    14    1
    26    14    15    1
    27    15    16    1
    28    15    17    1
    29    23    24   ar
    30    24    25    1
    31    24    26   ar
    32    33    28   ar
    33    26    20   ar
    34    11     1    1
    35    17    12    1
    36     9     2   ar
    37    16    18    1
@<TRIPOS>MOLECULE
*****
 33 37 0 0 0
SMALL
GASTEIGER

@<TRIPOS>ATOM
      1 C          63.7634   90.2061   13.5402 C.3     1  UNL1        0.2027
      2 C          64.6590   91.2836   13.0043 C.ar    1  UNL1        0.0163
      3 C          64.4537   92.3241   11.9437 C.ar    1  UNL1        0.0104
      4 C          65.5548   93.2885   11.6160 C.ar    1  UNL1        0.0583
      5 CL         65.3495   94.3291   10.5553 Cl      1  UNL1       -0.0822
      6 C          66.8613   93.2123   12.3491 C.ar    1  UNL1        0.0224
      7 C          67.0666   92.1718   13.4097 C.ar    1  UNL1        0.0544
      8 CL         68.3731   92.0957   14.1428 Cl      1  UNL1       -0.0826
      9 C          65.9655   91.2074   13.7374 C.ar    1  UNL1       -0.0106
     10 C          65.8773   90.0829   14.7262 C.3     1  UNL1        0.0470
     11 C          64.5164   89.4641   14.6044 C.3     1  UNL1        0.1066
     12 N          63.9992   88.3065   15.4059 N.3     1  UNL1       -0.2682
     13 C          64.2288   86.8546   15.1072 C.3     1  UNL1        0.0748
     14 C          63.5330   86.0483   16.1636 C.3     1  UNL1        0.0480
     15 C          62.8735   87.0020   17.1152 C.3     1  UNL1        0.1278
     16 O          62.0673   86.6260   18.3230 O.3     1  UNL1       -0.3830
     17 C          63.1615   88.3976   16.6469 C.3     1  UNL1        0.1018
     18 H          61.7536   87.4302   18.7655 H       1  UNL1        0.2104
     19 O          62.3611   89.9209   13.0907 O.3     1  UNL1       -0.4711
     20 C          61.6308   87.1665    9.6079 C.ar    1  UNL1        0.0686
     21 C          62.2913   86.6460   10.8501 C.ar    1  UNL1        0.0209
     22 C          62.5347   87.5641   12.0110 C.ar    1  UNL1        0.0407
     23 C          62.1177   89.0028   11.9298 C.ar    1  UNL1        0.1662
     24 C          61.4572   89.5232   10.6876 C.ar    1  UNL1        0.1753
     25 F          61.0402   90.9617   10.6063 F       1  UNL1       -0.2009
     26 C          61.2138   88.6050    9.5267 C.ar    1  UNL1        0.0503
     27 C          58.8803   86.9682    7.8630 C.3     1  UNL1        0.0742
     28 C          60.1232   86.1571    7.6449 C.ar    1  UNL1        0.1473
     29 N          60.3200   85.1126    6.5866 N.ar    1  UNL1       -0.1333
     30 N          61.7059   84.5582    6.7345 N.ar    1  UNL1       -0.1333
     31 C          62.3656   85.2601    7.8843 C.ar    1  UNL1        0.1473
     32 C          63.7590   85.0165    8.3837 C.3     1  UNL1        0.0742
     33 N          61.3875   86.2483    8.4470 N.ar    1  UNL1       -0.2806
@<TRIPOS>BOND
     1    27    28    1
     2    28    29   ar
     3    29    30   ar
     4    30    31   ar
     5    31    32    1
     6    31    33   ar
     7    33    20    1
     8    20    21   ar
     9    21    22   ar
    10    22    23   ar
    11    23    19    1
    12     1    19    1
    13     1     2    1
    14     2     3   ar
    15     3     4   ar
    16     4     5    1
    17     4     6   ar
    18     6     7   ar
    19     7     8    1
    20     7     9   ar
    21     9    10    1
    22    10    11    1
    23    11    12    1
    24    12    13    1
    25    13    14    1
    26    14    15    1
    27    15    16    1
    28    15    17    1
    29    23    24   ar
    30    24    25    1
    31    24    26   ar
    32    33    28   ar
    33    26    20   ar
    34    11     1    1
    35    17    12    1
    36     9     2   ar
    37    16    18    1
@<TRIPOS>MOLECULE
*****
 33 37 0 0 0
SMALL
GASTEIGER

@<TRIPOS>ATOM
      1 C          61.9891   86.5926   11.2844 C.3     1  UNL1        0.2027
      2 C          62.8684   85.5268   11.8683 C.ar    1  UNL1        0.0163
      3 C          63.5226   85.3896   13.2111 C.ar    1  UNL1        0.0104
      4 C          64.3641   84.1859   13.5158 C.ar    1  UNL1        0.0583
      5 CL         65.0184   84.0486   14.8587 Cl      1  UNL1       -0.0822
      6 C          64.5515   83.1195   12.4777 C.ar    1  UNL1        0.0224
      7 C          63.8973   83.2567   11.1349 C.ar    1  UNL1        0.0544
      8 CL         64.0847   82.1902   10.0969 Cl      1  UNL1       -0.0826
      9 C          63.0557   84.4604   10.8302 C.ar    1  UNL1       -0.0106
     10 C          62.2923   84.8671    9.6048 C.3     1  UNL1        0.0470
     11 C          61.6331   86.1850    9.8854 C.3     1  UNL1        0.1066
     12 N          60.7695   86.9591    8.9342 N.3     1  UNL1       -0.2682
     13 C          59.7925   86.3764    7.9565 C.3     1  UNL1        0.0748
     14 C          59.1505   87.5091    7.2117 C.3     1  UNL1        0.0480
     15 C          59.7306   88.7920    7.7291 C.3     1  UNL1        0.1278
     16 O          59.3730   90.1723    7.2637 O.3     1  UNL1       -0.3830
     17 C          60.7312   88.4520    8.7937 C.3     1  UNL1        0.1018
     18 H          59.8915   90.8252    7.7595 H       1  UNL1        0.2104
     19 O          61.5441   87.8461   11.9777 O.3     1  UNL1       -0.4711
     20 C          64.4405   91.2383   12.5726 C.ar    1  UNL1        0.0686
     21 C          63.4534   91.2841   11.4440 C.ar    1  UNL1        0.0209
     22 C          62.4880   90.1533   11.2457 C.ar    1  UNL1        0.0407
     23 C          62.5095   88.9768   12.1760 C.ar    1  UNL1        0.1662
     24 C          63.4966   88.9310   13.3045 C.ar    1  UNL1        0.1753
     25 F          63.5183   87.7546   14.2348 F       1  UNL1       -0.2009
     26 C          64.4621   90.0618   13.5028 C.ar    1  UNL1        0.0503
     27 C          65.7887   92.1348   15.4059 C.3     1  UNL1        0.0742
     28 C          66.0257   92.7812   14.0731 C.ar    1  UNL1        0.1473
     29 N          66.9239   93.9530   13.8087 N.ar    1  UNL1       -0.1333
     30 N          66.8593   94.2651   12.3430 N.ar    1  UNL1       -0.1333
     31 C          65.9212   93.2862   11.7015 C.ar    1  UNL1        0.1473
     32 C          65.5614   93.2336   10.2462 C.3     1  UNL1        0.0742
     33 N          65.4059   92.3690   12.7708 N.ar    1  UNL1       -0.2806
@<TRIPOS>BOND
     1    27    28    1
     2    28    29   ar
     3    29    30   ar
     4    30    31   ar
     5    31    32    1
     6    31    33   ar
     7    33    20    1
     8    20    21   ar
     9    21    22   ar
    10    22    23   ar
    11    23    19    1
    12     1    19    1
    13     1     2    1
    14     2     3   ar
    15     3     4   ar
    16     4     5    1
    17     4     6   ar
    18     6     7   ar
    19     7     8    1
    20     7     9   ar
    21     9    10    1
    22    10    11    1
    23    11    12    1
    24    12    13    1
    25    13    14    1
    26    14    15    1
    27    15    16    1
    28    15    17    1
    29    23    24   ar
    30    24    25    1
    31    24    26   ar
    32    33    28   ar
    33    26    20   ar
    34    11     1    1
    35    17    12    1
    36     9     2   ar
    37    16    18    1
@<TRIPOS>MOLECULE
*****
 33 37 0 0 0
SMALL
GASTEIGER

@<TRIPOS>ATOM
      1 C          63.7377   90.2391   12.9509 C.3     1  UNL1        0.2027
      2 C          64.9844   91.0139   13.2601 C.ar    1  UNL1        0.0163
      3 C          65.9296   90.9717   14.4240 C.ar    1  UNL1        0.0104
      4 C          67.1179   91.8864   14.4586 C.ar    1  UNL1        0.0583
      5 CL         68.0631   91.8442   15.6226 Cl      1  UNL1       -0.0822
      6 C          67.3610   92.8432   13.3293 C.ar    1  UNL1        0.0224
      7 C          66.4158   92.8854   12.1654 C.ar    1  UNL1        0.0544
      8 CL         66.6590   93.8422   11.0361 Cl      1  UNL1       -0.0826
      9 C          65.2275   91.9707   12.1307 C.ar    1  UNL1       -0.0106
     10 C          64.1311   91.7872   11.1236 C.3     1  UNL1        0.0470
     11 C          63.2104   90.7171   11.6305 C.3     1  UNL1        0.1066
     12 N          61.9786   90.2133   10.9385 N.3     1  UNL1       -0.2682
     13 C          60.5830   90.2463   11.4874 C.3     1  UNL1        0.0748
     14 C          59.6680   89.6415   10.4642 C.3     1  UNL1        0.0480
     15 C          60.4980   89.2347    9.2829 C.3     1  UNL1        0.1278
     16 O          59.9893   88.5880    8.0287 O.3     1  UNL1       -0.3830
     17 C          61.9260   89.5881    9.5760 C.3     1  UNL1        0.1018
     18 H          60.7305   88.4285    7.4237 H       1  UNL1        0.2104
     19 O          63.1259   89.1734   13.8111 O.3     1  UNL1       -0.4711
     20 C          63.1771   84.8827   12.4558 C.ar    1  UNL1        0.0686
     21 C          62.3862   85.9016   11.6901 C.ar    1  UNL1        0.0209
     22 C          62.3692   87.3319   12.1419 C.ar    1  UNL1        0.0407
     23 C          63.1430   87.7432   13.3594 C.ar    1  UNL1        0.1662
     24 C          63.9339   86.7242   14.1250 C.ar    1  UNL1        0.1753
     25 F          64.7077   87.1354   15.3424 F       1  UNL1       -0.2009
     26 C          63.9509   85.2940   13.6732 C.ar    1  UNL1        0.0503
     27 C          64.0872   83.8123    9.5104 C.3     1  UNL1        0.0742
     28 C          63.6125   82.9604   10.6502 C.ar    1  UNL1        0.1473
     29 N          63.4728   81.4670   10.6362 N.ar    1  UNL1       -0.1333
     30 N          62.9681   81.0361   11.9814 N.ar    1  UNL1       -0.1333
     31 C          62.7960   82.2631   12.8267 C.ar    1  UNL1        0.1473
     32 C          62.3107   82.2952   14.2458 C.3     1  UNL1        0.0742
     33 N          63.1942   83.4525   12.0040 N.ar    1  UNL1       -0.2806
@<TRIPOS>BOND
     1    27    28    1
     2    28    29   ar
     3    29    30   ar
     4    30    31   ar
     5    31    32    1
     6    31    33   ar
     7    33    20    1
     8    20    21   ar
     9    21    22   ar
    10    22    23   ar
    11    23    19    1
    12     1    19    1
    13     1     2    1
    14     2     3   ar
    15     3     4   ar
    16     4     5    1
    17     4     6   ar
    18     6     7   ar
    19     7     8    1
    20     7     9   ar
    21     9    10    1
    22    10    11    1
    23    11    12    1
    24    12    13    1
    25    13    14    1
    26    14    15    1
    27    15    16    1
    28    15    17    1
    29    23    24   ar
    30    24    25    1
    31    24    26   ar
    32    33    28   ar
    33    26    20   ar
    34    11     1    1
    35    17    12    1
    36     9     2   ar
    37    16    18    1
@<TRIPOS>MOLECULE
*****
 33 37 0 0 0
SMALL
GASTEIGER

@<TRIPOS>ATOM
      1 C          63.7557   90.2116   12.9755 C.3     1  UNL1        0.2027
      2 C          64.9958   90.9948   13.2898 C.ar    1  UNL1        0.0163
      3 C          65.9369   90.9585   14.4572 C.ar    1  UNL1        0.0104
      4 C          67.1186   91.8814   14.4968 C.ar    1  UNL1        0.0583
      5 CL         68.0598   91.8452   15.6643 Cl      1  UNL1       -0.0822
      6 C          67.3593   92.8406   13.3690 C.ar    1  UNL1        0.0224
      7 C          66.4182   92.8769   12.2016 C.ar    1  UNL1        0.0544
      8 CL         66.6588   93.8361   11.0737 Cl      1  UNL1       -0.0826
      9 C          65.2364   91.9540   12.1620 C.ar    1  UNL1       -0.0106
     10 C          64.1451   91.7635   11.1507 C.3     1  UNL1        0.0470
     11 C          63.2299   90.6866   11.6535 C.3     1  UNL1        0.1066
     12 N          62.0042   90.1747   10.9566 N.3     1  UNL1       -0.2682
     13 C          60.6067   90.1964   11.5009 C.3     1  UNL1        0.0748
     14 C          59.6996   89.5863   10.4738 C.3     1  UNL1        0.0480
     15 C          60.5366   89.1876    9.2946 C.3     1  UNL1        0.1278
     16 O          60.0370   88.5391    8.0376 O.3     1  UNL1       -0.3830
     17 C          61.9609   89.5513    9.5930 C.3     1  UNL1        0.1018
     18 H          60.7814   88.3862    7.4348 H       1  UNL1        0.2104
     19 O          63.1481   89.1411   13.8328 O.3     1  UNL1       -0.4711
     20 C          63.1875   84.8588   12.4509 C.ar    1  UNL1        0.0686
     21 C          62.4082   85.8868   11.6853 C.ar    1  UNL1        0.0209
     22 C          62.3951   87.3142   12.1460 C.ar    1  UNL1        0.0407
     23 C          63.1612   87.7137   13.3722 C.ar    1  UNL1        0.1662
     24 C          63.9404   86.6857   14.1378 C.ar    1  UNL1        0.1753
     25 F          64.7065   87.0851   15.3639 F       1  UNL1       -0.2009
     26 C          63.9535   85.2583   13.6771 C.ar    1  UNL1        0.0503
     27 C          62.2831   82.2659   14.2140 C.3     1  UNL1        0.0742
     28 C          62.7849   82.2395   12.8006 C.ar    1  UNL1        0.1473
     29 N          62.9591   81.0167   11.9495 N.ar    1  UNL1       -0.1333
     30 N          63.4825   81.4528   10.6131 N.ar    1  UNL1       -0.1333
     31 C          63.6317   82.9451   10.6383 C.ar    1  UNL1        0.1473
     32 C          64.1254   83.8010    9.5096 C.3     1  UNL1        0.0742
     33 N          63.2006   83.4313   11.9902 N.ar    1  UNL1       -0.2806
@<TRIPOS>BOND
     1    27    28    1
     2    28    29   ar
     3    29    30   ar
     4    30    31   ar
     5    31    32    1
     6    31    33   ar
     7    33    20    1
     8    20    21   ar
     9    21    22   ar
    10    22    23   ar
    11    23    19    1
    12     1    19    1
    13     1     2    1
    14     2     3   ar
    15     3     4   ar
    16     4     5    1
    17     4     6   ar
    18     6     7   ar
    19     7     8    1
    20     7     9   ar
    21     9    10    1
    22    10    11    1
    23    11    12    1
    24    12    13    1
    25    13    14    1
    26    14    15    1
    27    15    16    1
    28    15    17    1
    29    23    24   ar
    30    24    25    1
    31    24    26   ar
    32    33    28   ar
    33    26    20   ar
    34    11     1    1
    35    17    12    1
    36     9     2   ar
    37    16    18    1
@<TRIPOS>MOLECULE
*****
 33 37 0 0 0
SMALL
GASTEIGER

@<TRIPOS>ATOM
      1 C          61.4398   87.6812   11.2112 C.3     1  UNL1        0.2027
      2 C          60.9130   87.7196    9.8072 C.ar    1  UNL1        0.0163
      3 C          60.1088   88.7452    9.0647 C.ar    1  UNL1        0.0104
      4 C          59.7200   88.5030    7.6364 C.ar    1  UNL1        0.0583
      5 CL         58.9157   89.5286    6.8938 Cl      1  UNL1       -0.0822
      6 C          60.1353   87.2352    6.9507 C.ar    1  UNL1        0.0224
      7 C          60.9394   86.2096    7.6932 C.ar    1  UNL1        0.0544
      8 CL         61.3547   84.9418    7.0075 Cl      1  UNL1       -0.0826
      9 C          61.3283   86.4518    9.1215 C.ar    1  UNL1       -0.0106
     10 C          62.1117   85.6299   10.1016 C.3     1  UNL1        0.0470
     11 C          62.1807   86.3896   11.3931 C.3     1  UNL1        0.1066
     12 N          62.8695   85.9373   12.6465 N.3     1  UNL1       -0.2682
     13 C          63.8897   86.7167   13.4222 C.3     1  UNL1        0.0748
     14 C          64.3098   85.8873   14.5994 C.3     1  UNL1        0.0480
     15 C          63.5492   84.5953   14.5512 C.3     1  UNL1        0.1278
     16 O          63.6594   83.4700   15.5368 O.3     1  UNL1       -0.3830
     17 C          62.6591   84.6263   13.3442 C.3     1  UNL1        0.1018
     18 H          63.0611   82.7523   15.2763 H       1  UNL1        0.2104
     19 O          61.2577   88.7471   12.2506 O.3     1  UNL1       -0.4711
     20 C          64.7880   91.1744   13.6272 C.ar    1  UNL1        0.0686
     21 C          64.1246   90.2143   14.5697 C.ar    1  UNL1        0.0209
     22 C          62.9478   89.4053   14.1108 C.ar    1  UNL1        0.0407
     23 C          62.4344   89.5562   12.7095 C.ar    1  UNL1        0.1662
     24 C          63.0979   90.5162   11.7670 C.ar    1  UNL1        0.1753
     25 F          62.5846   90.6672   10.3657 F       1  UNL1       -0.2009
     26 C          64.2747   91.3253   12.2259 C.ar    1  UNL1        0.0503
     27 C          67.3830   91.9810   11.8203 C.3     1  UNL1        0.0742
     28 C          67.1576   92.3542   13.2557 C.ar    1  UNL1        0.1473
     29 N          68.0854   93.1637   14.1123 N.ar    1  UNL1       -0.1333
     30 N          67.4660   93.2932   15.4723 N.ar    1  UNL1       -0.1333
     31 C          66.1555   92.5637   15.4561 C.ar    1  UNL1        0.1473
     32 C          65.2027   92.4368   16.6078 C.3     1  UNL1        0.0742
     33 N          65.9648   91.9834   14.0861 N.ar    1  UNL1       -0.2806
@<TRIPOS>BOND
     1    27    28    1
     2    28    29   ar
     3    29    30   ar
     4    30    31   ar
     5    31    32    1
     6    31    33   ar
     7    33    20    1
     8    20    21   ar
     9    21    22   ar
    10    22    23   ar
    11    23    19    1
    12     1    19    1
    13     1     2    1
    14     2     3   ar
    15     3     4   ar
    16     4     5    1
    17     4     6   ar
    18     6     7   ar
    19     7     8    1
    20     7     9   ar
    21     9    10    1
    22    10    11    1
    23    11    12    1
    24    12    13    1
    25    13    14    1
    26    14    15    1
    27    15    16    1
    28    15    17    1
    29    23    24   ar
    30    24    25    1
    31    24    26   ar
    32    33    28   ar
    33    26    20   ar
    34    11     1    1
    35    17    12    1
    36     9     2   ar
    37    16    18    1
@<TRIPOS>MOLECULE
*****
 33 37 0 0 0
SMALL
GASTEIGER

@<TRIPOS>ATOM
      1 C          61.4892   87.1051   11.2084 C.3     1  UNL1        0.2027
      2 C          60.9522   87.2224    9.8127 C.ar    1  UNL1        0.0163
      3 C          60.1678   88.3011    9.1264 C.ar    1  UNL1        0.0104
      4 C          59.7615   88.1360    7.6920 C.ar    1  UNL1        0.0583
      5 CL         58.9771   89.2147    7.0057 Cl      1  UNL1       -0.0822
      6 C          60.1397   86.8920    6.9439 C.ar    1  UNL1        0.0224
      7 C          60.9241   85.8133    7.6302 C.ar    1  UNL1        0.0544
      8 CL         61.3022   84.5694    6.8820 Cl      1  UNL1       -0.0826
      9 C          61.3303   85.9785    9.0646 C.ar    1  UNL1       -0.0106
     10 C          62.1010   85.0925    9.9979 C.3     1  UNL1        0.0470
     11 C          62.1992   85.7888   11.3229 C.3     1  UNL1        0.1066
     12 N          62.8867   85.2613   12.5473 N.3     1  UNL1       -0.2682
     13 C          63.8509   86.0180   13.4120 C.3     1  UNL1        0.0748
     14 C          64.2908   85.1089   14.5211 C.3     1  UNL1        0.0480
     15 C          63.5984   83.7904   14.3419 C.3     1  UNL1        0.1278
     16 O          63.7476   82.5887   15.2271 O.3     1  UNL1       -0.3830
     17 C          62.7306   83.8846   13.1220 C.3     1  UNL1        0.1018
     18 H          63.1919   81.8683   14.8907 H       1  UNL1        0.2104
     19 O          61.3420   88.1252   12.2983 O.3     1  UNL1       -0.4711
     20 C          64.3993   91.3966   12.7463 C.ar    1  UNL1        0.0686
     21 C          64.5126   90.1465   13.5677 C.ar    1  UNL1        0.0209
     22 C          63.4935   89.0561   13.4183 C.ar    1  UNL1        0.0407
     23 C          62.3610   89.2156   12.4476 C.ar    1  UNL1        0.1662
     24 C          62.2478   90.4657   11.6263 C.ar    1  UNL1        0.1753
     25 F          61.1154   90.6253   10.6556 F       1  UNL1       -0.2009
     26 C          63.2669   91.5561   11.7757 C.ar    1  UNL1        0.0503
     27 C          65.8415   92.3060   15.5288 C.3     1  UNL1        0.0742
     28 C          66.0814   92.9051   14.1746 C.ar    1  UNL1        0.1473
     29 N          67.0262   94.0273   13.8618 N.ar    1  UNL1       -0.1333
     30 N          66.9472   94.3029   12.3894 N.ar    1  UNL1       -0.1333
     31 C          65.9535   93.3509   11.7924 C.ar    1  UNL1        0.1473
     32 C          65.5634   93.2760   10.3459 C.3     1  UNL1        0.0742
     33 N          65.4184   92.4871   12.8957 N.ar    1  UNL1       -0.2806
@<TRIPOS>BOND
     1    27    28    1
     2    28    29   ar
     3    29    30   ar
     4    30    31   ar
     5    31    32    1
     6    31    33   ar
     7    33    20    1
     8    20    21   ar
     9    21    22   ar
    10    22    23   ar
    11    23    19    1
    12     1    19    1
    13     1     2    1
    14     2     3   ar
    15     3     4   ar
    16     4     5    1
    17     4     6   ar
    18     6     7   ar
    19     7     8    1
    20     7     9   ar
    21     9    10    1
    22    10    11    1
    23    11    12    1
    24    12    13    1
    25    13    14    1
    26    14    15    1
    27    15    16    1
    28    15    17    1
    29    23    24   ar
    30    24    25    1
    31    24    26   ar
    32    33    28   ar
    33    26    20   ar
    34    11     1    1
    35    17    12    1
    36     9     2   ar
    37    16    18    1
@<TRIPOS>MOLECULE
*****
 33 37 0 0 0
SMALL
GASTEIGER

@<TRIPOS>ATOM
      1 C          63.6085   90.2705   13.5216 C.3     1  UNL1        0.2027
      2 C          64.5293   91.2593   12.8702 C.ar    1  UNL1        0.0163
      3 C          64.3593   92.1561   11.6800 C.ar    1  UNL1        0.0104
      4 C          65.4799   93.0575   11.2539 C.ar    1  UNL1        0.0583
      5 CL         65.3099   93.9544   10.0636 Cl      1  UNL1       -0.0822
      6 C          66.7707   93.0620   12.0181 C.ar    1  UNL1        0.0224
      7 C          66.9407   92.1652   13.2083 C.ar    1  UNL1        0.0544
      8 CL         68.2315   92.1697   13.9725 Cl      1  UNL1       -0.0826
      9 C          65.8200   91.2638   13.6344 C.ar    1  UNL1       -0.0106
     10 C          65.6969   90.2778   14.7581 C.3     1  UNL1        0.0470
     11 C          64.3301   89.6639   14.6884 C.3     1  UNL1        0.1066
     12 N          63.7812   88.6257   15.6216 N.3     1  UNL1       -0.2682
     13 C          63.0233   88.8912   16.8885 C.3     1  UNL1        0.0748
     14 C          62.6675   87.5693   17.5016 C.3     1  UNL1        0.0480
     15 C          63.2056   86.4867   16.6137 C.3     1  UNL1        0.1278
     16 O          63.0779   85.0104   16.8467 O.3     1  UNL1       -0.3830
     17 C          63.8939   87.1396   15.4518 C.3     1  UNL1        0.1018
     18 H          63.5124   84.5303   16.1245 H       1  UNL1        0.2104
     19 O          62.2113   89.9454   13.0832 O.3     1  UNL1       -0.4711
     20 C          61.5326   87.1992    9.5835 C.ar    1  UNL1        0.0686
     21 C          60.8424   88.5299    9.6375 C.ar    1  UNL1        0.0209
     22 C          61.0687   89.4453   10.8041 C.ar    1  UNL1        0.0407
     23 C          61.9851   89.0300   11.9167 C.ar    1  UNL1        0.1662
     24 C          62.6753   87.6993   11.8626 C.ar    1  UNL1        0.1753
     25 F          63.5917   87.2840   12.9751 F       1  UNL1       -0.2009
     26 C          62.4490   86.7839   10.6960 C.ar    1  UNL1        0.0503
     27 C          63.7210   85.1426    8.3065 C.3     1  UNL1        0.0742
     28 C          62.3122   85.3385    7.8299 C.ar    1  UNL1        0.1473
     29 N          61.6621   84.6235    6.6827 N.ar    1  UNL1       -0.1333
     30 N          60.2544   85.1270    6.5607 N.ar    1  UNL1       -0.1333
     31 C          60.0345   86.1531    7.6325 C.ar    1  UNL1        0.1473
     32 C          58.7656   86.9148    7.8769 C.3     1  UNL1        0.0742
     33 N          61.3064   86.2838    8.4169 N.ar    1  UNL1       -0.2806
@<TRIPOS>BOND
     1    27    28    1
     2    28    29   ar
     3    29    30   ar
     4    30    31   ar
     5    31    32    1
     6    31    33   ar
     7    33    20    1
     8    20    21   ar
     9    21    22   ar
    10    22    23   ar
    11    23    19    1
    12     1    19    1
    13     1     2    1
    14     2     3   ar
    15     3     4   ar
    16     4     5    1
    17     4     6   ar
    18     6     7   ar
    19     7     8    1
    20     7     9   ar
    21     9    10    1
    22    10    11    1
    23    11    12    1
    24    12    13    1
    25    13    14    1
    26    14    15    1
    27    15    16    1
    28    15    17    1
    29    23    24   ar
    30    24    25    1
    31    24    26   ar
    32    33    28   ar
    33    26    20   ar
    34    11     1    1
    35    17    12    1
    36     9     2   ar
    37    16    18    1
