@<TRIPOS>MOLECULE
*****
 29 33 0 0 0
SMALL
GASTEIGER

@<TRIPOS>ATOM
      1 C          64.5514   91.1338   13.2950 C.ar    1  UNL1        0.1383
      2 C          63.6837   90.7145   12.1456 C.ar    1  UNL1        0.0400
      3 C          63.2467   89.2853   12.0181 C.ar    1  UNL1        0.0397
      4 C          63.6775   88.2752   13.0400 C.ar    1  UNL1        0.1344
      5 C          64.5453   88.6945   14.1894 C.ar    1  UNL1        0.0149
      6 C          64.9822   90.1238   14.3169 C.ar    1  UNL1        0.0356
      7 C          64.9761   87.6845   15.2113 C.3     1  UNL1        0.0331
      8 C          64.5391   86.2552   15.0838 C.3     1  UNL1        0.0449
      9 C          63.6714   85.8359   13.9344 C.3     1  UNL1        0.1361
     10 C          64.1022   84.8260   14.9563 C.3     1  UNL1        0.0574
     11 C          63.6652   83.3967   14.8288 C.3     1  UNL1        0.0756
     12 N          62.7975   82.9774   13.6793 N.3     1  UNL1       -0.2737
     13 C          62.3667   83.9874   12.6574 C.3     1  UNL1        0.0756
     14 C          62.8036   85.4166   12.7849 C.3     1  UNL1        0.0574
     15 O          63.2406   86.8460   12.9125 O.3     1  UNL1       -0.4828
     16 C          62.3605   81.5481   13.5518 C.3     1  UNL1        0.0575
     17 C          62.8558   80.3509   12.7959 C.3     1  UNL1        0.0160
     18 C          61.7425   79.5268   13.3715 C.3     1  UNL1        0.0028
     19 C          61.2472   80.7240   14.1275 C.3     1  UNL1        0.0160
     20 O          64.9884   92.5630   13.4226 O.3     1  UNL1       -0.4791
     21 C          67.6343   96.8558    8.7513 C.3     1  UNL1        0.0948
     22 C          67.4967   95.3621    8.7457 C.2     1  UNL1        0.2261
     23 O          67.9862   94.5682    7.5709 O.2     1  UNL1       -0.2749
     24 N          66.8696   94.6623    9.9149 N.am    1  UNL1       -0.2793
     25 C          66.3802   95.4562   11.0897 C.3     1  UNL1        0.0971
     26 C          65.7531   94.7564   12.2589 C.3     1  UNL1        0.0650
     27 C          65.6155   93.2628   12.2533 C.3     1  UNL1        0.1693
     28 C          66.1049   92.4689   11.0785 C.3     1  UNL1        0.0650
     29 C          66.7320   93.1687    9.9093 C.3     1  UNL1        0.0971
@<TRIPOS>BOND
     1    21    22    1
     2    22    23    2
     3    22    24   am
     4    24    25    1
     5    25    26    1
     6    26    27    1
     7    27    20    1
     8    20     1    1
     9     1     2   ar
    10     2     3   ar
    11     3     4   ar
    12     4     5   ar
    13     5     6   ar
    14     5     7    1
    15     7     8    1
    16     8     9    1
    17     9    10    1
    18    10    11    1
    19    11    12    1
    20    12    16    1
    21    16    17    1
    22    17    18    1
    23    18    19    1
    24    12    13    1
    25    13    14    1
    26     9    15    1
    27    27    28    1
    28    28    29    1
    29    29    24    1
    30     6     1   ar
    31    14     9    1
    32    15     4    1
    33    19    16    1
@<TRIPOS>MOLECULE
*****
 29 33 0 0 0
SMALL
GASTEIGER

@<TRIPOS>ATOM
      1 C          64.7404   91.2931   13.6014 C.ar    1  UNL1        0.1383
      2 C          65.2263   90.5315   14.7989 C.ar    1  UNL1        0.0400
      3 C          64.9487   89.0622   14.9165 C.ar    1  UNL1        0.0397
      4 C          64.1851   88.3543   13.8366 C.ar    1  UNL1        0.1344
      5 C          63.6992   89.1159   12.6392 C.ar    1  UNL1        0.0149
      6 C          63.9769   90.5853   12.5216 C.ar    1  UNL1        0.0356
      7 C          62.9357   88.4081   11.5594 C.3     1  UNL1        0.0331
      8 C          62.6581   86.9387   11.6770 C.3     1  UNL1        0.0449
      9 C          63.1439   86.1771   12.8744 C.3     1  UNL1        0.1361
     10 C          62.3804   85.4694   11.7946 C.3     1  UNL1        0.0574
     11 C          62.1028   84.0000   11.9122 C.3     1  UNL1        0.0756
     12 N          62.5887   83.2384   13.1097 N.3     1  UNL1       -0.2737
     13 C          63.3522   83.9462   14.1895 C.3     1  UNL1        0.0756
     14 C          63.6298   85.4155   14.0719 C.3     1  UNL1        0.0574
     15 O          63.9075   86.8850   13.9543 O.3     1  UNL1       -0.4828
     16 C          62.3110   81.7690   13.2273 C.3     1  UNL1        0.0575
     17 C          62.7666   80.5415   12.4953 C.3     1  UNL1        0.0160
     18 C          61.9183   79.6910   13.3937 C.3     1  UNL1        0.0028
     19 C          61.4627   80.9185   14.1256 C.3     1  UNL1        0.0160
     20 O          65.0180   92.7625   13.4838 O.3     1  UNL1       -0.4791
     21 C          67.7954   96.4109    8.3627 C.3     1  UNL1        0.0948
     22 C          67.6759   94.9287    8.5600 C.2     1  UNL1        0.2261
     23 O          68.2208   93.9882    7.5264 O.2     1  UNL1       -0.2749
     24 N          67.0114   94.3872    9.7910 N.am    1  UNL1       -0.2793
     25 C          66.4665   95.3278   10.8246 C.3     1  UNL1        0.0971
     26 C          65.8020   94.7862   12.0555 C.3     1  UNL1        0.0650
     27 C          65.6825   93.3040   12.2528 C.3     1  UNL1        0.1693
     28 C          66.2275   92.3634   11.2192 C.3     1  UNL1        0.0650
     29 C          66.8919   92.9050    9.9883 C.3     1  UNL1        0.0971
@<TRIPOS>BOND
     1    21    22    1
     2    22    23    2
     3    22    24   am
     4    24    25    1
     5    25    26    1
     6    26    27    1
     7    27    20    1
     8    20     1    1
     9     1     2   ar
    10     2     3   ar
    11     3     4   ar
    12     4     5   ar
    13     5     6   ar
    14     5     7    1
    15     7     8    1
    16     8     9    1
    17     9    10    1
    18    10    11    1
    19    11    12    1
    20    12    16    1
    21    16    17    1
    22    17    18    1
    23    18    19    1
    24    12    13    1
    25    13    14    1
    26     9    15    1
    27    27    28    1
    28    28    29    1
    29    29    24    1
    30     6     1   ar
    31    14     9    1
    32    15     4    1
    33    19    16    1
@<TRIPOS>MOLECULE
*****
 29 33 0 0 0
SMALL
GASTEIGER

@<TRIPOS>ATOM
      1 C          59.3038   90.6130    5.5126 C.ar    1  UNL1        0.1383
      2 C          58.5395   91.7289    4.8642 C.ar    1  UNL1        0.0400
      3 C          59.2041   92.5941    3.8348 C.ar    1  UNL1        0.0397
      4 C          60.6332   92.3434    3.4538 C.ar    1  UNL1        0.1344
      5 C          61.3975   91.2275    4.1023 C.ar    1  UNL1        0.0149
      6 C          60.7328   90.3623    5.1317 C.ar    1  UNL1        0.0356
      7 C          62.8265   90.9768    3.7214 C.3     1  UNL1        0.0331
      8 C          63.4912   91.8420    2.6920 C.3     1  UNL1        0.0449
      9 C          62.7269   92.9579    2.0435 C.3     1  UNL1        0.1361
     10 C          64.1558   92.7072    1.6626 C.3     1  UNL1        0.0574
     11 C          64.8205   93.5724    0.6333 C.3     1  UNL1        0.0756
     12 N          64.0561   94.6883   -0.0152 N.3     1  UNL1       -0.2737
     13 C          62.6272   94.9390    0.3657 C.3     1  UNL1        0.0756
     14 C          61.9625   94.0738    1.3950 C.3     1  UNL1        0.0574
     15 O          61.2978   93.2086    2.4245 O.3     1  UNL1       -0.4828
     16 C          64.7209   95.5535   -1.0446 C.3     1  UNL1        0.0575
     17 C          65.7354   96.6578   -1.0071 C.3     1  UNL1        0.0160
     18 C          65.6608   96.7771   -2.5005 C.3     1  UNL1        0.0028
     19 C          64.6463   95.6729   -2.5380 C.3     1  UNL1        0.0160
     20 O          58.6392   89.7478    6.5420 O.3     1  UNL1       -0.4791
     21 C          62.0582   85.4292   10.6541 C.3     1  UNL1        0.0948
     22 C          61.9465   86.9248   10.6763 C.2     1  UNL1        0.2261
     23 O          62.6616   87.7147   11.7321 O.2     1  UNL1       -0.2749
     24 N          61.1197   87.6306    9.6427 N.am    1  UNL1       -0.2793
     25 C          60.4046   86.8407    8.5870 C.3     1  UNL1        0.0971
     26 C          59.5778   87.5464    7.5534 C.3     1  UNL1        0.0650
     27 C          59.4661   89.0421    7.5756 C.3     1  UNL1        0.1693
     28 C          60.1811   89.8320    8.6314 C.3     1  UNL1        0.0650
     29 C          61.0079   89.1262    9.6649 C.3     1  UNL1        0.0971
@<TRIPOS>BOND
     1    21    22    1
     2    22    23    2
     3    22    24   am
     4    24    25    1
     5    25    26    1
     6    26    27    1
     7    27    20    1
     8    20     1    1
     9     1     2   ar
    10     2     3   ar
    11     3     4   ar
    12     4     5   ar
    13     5     6   ar
    14     5     7    1
    15     7     8    1
    16     8     9    1
    17     9    10    1
    18    10    11    1
    19    11    12    1
    20    12    16    1
    21    16    17    1
    22    17    18    1
    23    18    19    1
    24    12    13    1
    25    13    14    1
    26     9    15    1
    27    27    28    1
    28    28    29    1
    29    29    24    1
    30     6     1   ar
    31    14     9    1
    32    15     4    1
    33    19    16    1
@<TRIPOS>MOLECULE
*****
 29 33 0 0 0
SMALL
GASTEIGER

@<TRIPOS>ATOM
      1 C          63.6604   89.7416   13.8602 C.ar    1  UNL1        0.1383
      2 C          62.9762   89.5864   12.5344 C.ar    1  UNL1        0.0400
      3 C          62.7779   88.2200   11.9482 C.ar    1  UNL1        0.0397
      4 C          63.2638   87.0088   12.6879 C.ar    1  UNL1        0.1344
      5 C          63.9480   87.1641   14.0137 C.ar    1  UNL1        0.0149
      6 C          64.1463   88.5305   14.5999 C.ar    1  UNL1        0.0356
      7 C          64.4339   85.9530   14.7533 C.3     1  UNL1        0.0331
      8 C          64.2356   84.5865   14.1671 C.3     1  UNL1        0.0449
      9 C          63.5514   84.4312   12.8413 C.3     1  UNL1        0.1361
     10 C          64.0373   83.2201   13.5809 C.3     1  UNL1        0.0574
     11 C          63.8390   81.8538   12.9948 C.3     1  UNL1        0.0756
     12 N          63.1548   81.6985   11.6689 N.3     1  UNL1       -0.2737
     13 C          62.6689   82.9096   10.9293 C.3     1  UNL1        0.0756
     14 C          62.8672   84.2760   11.5155 C.3     1  UNL1        0.0574
     15 O          63.0655   85.6424   12.1017 O.3     1  UNL1       -0.4828
     16 C          62.9565   80.3320   11.0828 C.3     1  UNL1        0.0575
     17 C          62.6838   78.9672   11.6422 C.3     1  UNL1        0.0160
     18 C          62.6761   78.3997   10.2537 C.3     1  UNL1        0.0028
     19 C          62.9488   79.7645    9.6943 C.3     1  UNL1        0.0160
     20 O          63.8587   91.1080   14.4464 O.3     1  UNL1       -0.4791
     21 C          69.7124   94.1030   16.4502 C.3     1  UNL1        0.0948
     22 C          69.4049   93.2493   15.2558 C.2     1  UNL1        0.2261
     23 O          70.4839   92.9310   14.2637 O.2     1  UNL1       -0.2749
     24 N          68.0183   92.7140   15.0535 N.am    1  UNL1       -0.2793
     25 C          66.9393   93.0323   16.0456 C.3     1  UNL1        0.0971
     26 C          65.5528   92.4970   15.8432 C.3     1  UNL1        0.0650
     27 C          65.2453   91.6433   14.6488 C.3     1  UNL1        0.1693
     28 C          66.3243   91.3250   13.6566 C.3     1  UNL1        0.0650
     29 C          67.7108   91.8603   13.8590 C.3     1  UNL1        0.0971
@<TRIPOS>BOND
     1    21    22    1
     2    22    23    2
     3    22    24   am
     4    24    25    1
     5    25    26    1
     6    26    27    1
     7    27    20    1
     8    20     1    1
     9     1     2   ar
    10     2     3   ar
    11     3     4   ar
    12     4     5   ar
    13     5     6   ar
    14     5     7    1
    15     7     8    1
    16     8     9    1
    17     9    10    1
    18    10    11    1
    19    11    12    1
    20    12    16    1
    21    16    17    1
    22    17    18    1
    23    18    19    1
    24    12    13    1
    25    13    14    1
    26     9    15    1
    27    27    28    1
    28    28    29    1
    29    29    24    1
    30     6     1   ar
    31    14     9    1
    32    15     4    1
    33    19    16    1
@<TRIPOS>MOLECULE
*****
 29 33 0 0 0
SMALL
GASTEIGER

@<TRIPOS>ATOM
      1 C          59.2311   89.5867    6.8692 C.ar    1  UNL1        0.1383
      2 C          58.9092   88.1225    6.8205 C.ar    1  UNL1        0.0400
      3 C          59.5048   87.1896    7.8329 C.ar    1  UNL1        0.0397
      4 C          60.4224   87.7209    8.8940 C.ar    1  UNL1        0.1344
      5 C          60.7443   89.1852    8.9426 C.ar    1  UNL1        0.0149
      6 C          60.1487   90.1181    7.9302 C.ar    1  UNL1        0.0356
      7 C          61.6618   89.7165   10.0036 C.3     1  UNL1        0.0331
      8 C          62.2574   88.7836   11.0161 C.3     1  UNL1        0.0449
      9 C          61.9355   87.3193   10.9674 C.3     1  UNL1        0.1361
     10 C          62.8530   87.8506   12.0284 C.3     1  UNL1        0.0574
     11 C          63.4486   86.9177   13.0408 C.3     1  UNL1        0.0756
     12 N          63.1266   85.4535   12.9921 N.3     1  UNL1       -0.2737
     13 C          62.2091   84.9222   11.9311 C.3     1  UNL1        0.0756
     14 C          61.6136   85.8551   10.9188 C.3     1  UNL1        0.0574
     15 O          61.0179   86.7880    9.9063 O.3     1  UNL1       -0.4828
     16 C          63.7223   84.5206   14.0046 C.3     1  UNL1        0.0575
     17 C          65.0954   84.3031   14.5679 C.3     1  UNL1        0.0160
     18 C          64.5645   83.2012   15.4364 C.3     1  UNL1        0.0028
     19 C          63.1915   83.4187   14.8730 C.3     1  UNL1        0.0160
     20 O          58.6356   90.5197    5.8568 O.3     1  UNL1       -0.4791
     21 C          63.6271   92.9196    1.7854 C.3     1  UNL1        0.0948
     22 C          62.1738   93.2804    1.8744 C.2     1  UNL1        0.2261
     23 O          61.6052   94.3315    0.9678 O.2     1  UNL1       -0.2749
     24 N          61.2893   92.5902    2.8701 N.am    1  UNL1       -0.2793
     25 C          61.8579   91.5392    3.7766 C.3     1  UNL1        0.0971
     26 C          60.9734   90.8490    4.7722 C.3     1  UNL1        0.0650
     27 C          59.5201   91.2099    4.8612 C.3     1  UNL1        0.1693
     28 C          58.9515   92.2609    3.9546 C.3     1  UNL1        0.0650
     29 C          59.8360   92.9511    2.9590 C.3     1  UNL1        0.0971
@<TRIPOS>BOND
     1    21    22    1
     2    22    23    2
     3    22    24   am
     4    24    25    1
     5    25    26    1
     6    26    27    1
     7    27    20    1
     8    20     1    1
     9     1     2   ar
    10     2     3   ar
    11     3     4   ar
    12     4     5   ar
    13     5     6   ar
    14     5     7    1
    15     7     8    1
    16     8     9    1
    17     9    10    1
    18    10    11    1
    19    11    12    1
    20    12    16    1
    21    16    17    1
    22    17    18    1
    23    18    19    1
    24    12    13    1
    25    13    14    1
    26     9    15    1
    27    27    28    1
    28    28    29    1
    29    29    24    1
    30     6     1   ar
    31    14     9    1
    32    15     4    1
    33    19    16    1
@<TRIPOS>MOLECULE
*****
 29 33 0 0 0
SMALL
GASTEIGER

@<TRIPOS>ATOM
      1 C          59.1479   89.9241    6.3733 C.ar    1  UNL1        0.1383
      2 C          58.0249   90.7337    5.7958 C.ar    1  UNL1        0.0400
      3 C          58.2812   91.6537    4.6392 C.ar    1  UNL1        0.0397
      4 C          59.6605   91.7642    4.0599 C.ar    1  UNL1        0.1344
      5 C          60.7834   90.9545    4.6374 C.ar    1  UNL1        0.0149
      6 C          60.5271   90.0345    5.7941 C.ar    1  UNL1        0.0356
      7 C          62.1627   91.0650    4.0583 C.3     1  UNL1        0.0331
      8 C          62.4190   91.9850    2.9016 C.3     1  UNL1        0.0449
      9 C          61.2961   92.7946    2.3241 C.3     1  UNL1        0.1361
     10 C          62.6753   92.9050    1.7450 C.3     1  UNL1        0.0574
     11 C          62.9316   93.8251    0.5883 C.3     1  UNL1        0.0756
     12 N          61.8086   94.6347    0.0109 N.3     1  UNL1       -0.2737
     13 C          60.4294   94.5243    0.5900 C.3     1  UNL1        0.0756
     14 C          60.1731   93.6042    1.7466 C.3     1  UNL1        0.0574
     15 O          59.9168   92.6842    2.9033 O.3     1  UNL1       -0.4828
     16 C          62.0650   95.5547   -1.1458 C.3     1  UNL1        0.0575
     17 C          63.0856   95.6202   -2.2431 C.3     1  UNL1        0.0160
     18 C          62.4274   96.8559   -2.7816 C.3     1  UNL1        0.0028
     19 C          61.4068   96.7904   -1.6843 C.3     1  UNL1        0.0160
     20 O          58.8916   89.0041    7.5299 O.3     1  UNL1       -0.4791
     21 C          63.4475   89.8890   12.6005 C.3     1  UNL1        0.0948
     22 C          62.8655   88.6387   12.0104 C.2     1  UNL1        0.2261
     23 O          63.2770   87.2972   12.5403 O.2     1  UNL1       -0.2749
     24 N          61.8720   88.7301   10.8902 N.am    1  UNL1       -0.2793
     25 C          61.4605   90.0716   10.3603 C.3     1  UNL1        0.0971
     26 C          60.4671   90.1629    9.2402 C.3     1  UNL1        0.0650
     27 C          59.8851   88.9127    8.6500 C.3     1  UNL1        0.1693
     28 C          60.2966   87.5712    9.1800 C.3     1  UNL1        0.0650
     29 C          61.2901   87.4799   10.3001 C.3     1  UNL1        0.0971
@<TRIPOS>BOND
     1    21    22    1
     2    22    23    2
     3    22    24   am
     4    24    25    1
     5    25    26    1
     6    26    27    1
     7    27    20    1
     8    20     1    1
     9     1     2   ar
    10     2     3   ar
    11     3     4   ar
    12     4     5   ar
    13     5     6   ar
    14     5     7    1
    15     7     8    1
    16     8     9    1
    17     9    10    1
    18    10    11    1
    19    11    12    1
    20    12    16    1
    21    16    17    1
    22    17    18    1
    23    18    19    1
    24    12    13    1
    25    13    14    1
    26     9    15    1
    27    27    28    1
    28    28    29    1
    29    29    24    1
    30     6     1   ar
    31    14     9    1
    32    15     4    1
    33    19    16    1
@<TRIPOS>MOLECULE
*****
 29 33 0 0 0
SMALL
GASTEIGER

@<TRIPOS>ATOM
      1 C          64.1013   89.5306   13.8270 C.ar    1  UNL1        0.1383
      2 C          63.3252   89.3686   12.5537 C.ar    1  UNL1        0.0400
      3 C          63.0387   87.9966   12.0193 C.ar    1  UNL1        0.0397
      4 C          63.5283   86.7865   12.7584 C.ar    1  UNL1        0.1344
      5 C          64.3043   86.9485   14.0318 C.ar    1  UNL1        0.0149
      6 C          64.5908   88.3206   14.5661 C.ar    1  UNL1        0.0356
      7 C          64.7939   85.7386   14.7709 C.3     1  UNL1        0.0331
      8 C          64.5074   84.3665   14.2366 C.3     1  UNL1        0.0449
      9 C          63.7313   84.2045   12.9632 C.3     1  UNL1        0.1361
     10 C          64.2209   82.9945   13.7023 C.3     1  UNL1        0.0574
     11 C          63.9344   81.6225   13.1680 C.3     1  UNL1        0.0756
     12 N          63.1583   81.4605   11.8946 N.3     1  UNL1       -0.2737
     13 C          62.6688   82.6705   11.1555 C.3     1  UNL1        0.0756
     14 C          62.9553   84.0425   11.6898 C.3     1  UNL1        0.0574
     15 O          63.2418   85.4146   12.2241 O.3     1  UNL1       -0.4828
     16 C          62.8718   80.0884   11.3603 C.3     1  UNL1        0.0575
     17 C          62.8156   79.4727    9.9936 C.3     1  UNL1        0.0160
     18 C          62.4666   78.1481   10.6048 C.3     1  UNL1        0.0028
     19 C          62.5228   78.7638   11.9714 C.3     1  UNL1        0.0160
     20 O          64.3878   90.9026   14.3613 O.3     1  UNL1       -0.4791
     21 C          66.2625   95.0908    9.2433 C.3     1  UNL1        0.0948
     22 C          66.5439   95.1521   10.7154 C.2     1  UNL1        0.2261
     23 O          67.3644   96.2756   11.2759 O.2     1  UNL1       -0.2749
     24 N          66.0049   94.0896   11.6269 N.am    1  UNL1       -0.2793
     25 C          65.1844   92.9661   11.0663 C.3     1  UNL1        0.0971
     26 C          64.6454   91.9037   11.9778 C.3     1  UNL1        0.0650
     27 C          64.9268   91.9650   13.4498 C.3     1  UNL1        0.1693
     28 C          65.7473   93.0886   14.0104 C.3     1  UNL1        0.0650
     29 C          66.2864   94.1509   13.0989 C.3     1  UNL1        0.0971
@<TRIPOS>BOND
     1    21    22    1
     2    22    23    2
     3    22    24   am
     4    24    25    1
     5    25    26    1
     6    26    27    1
     7    27    20    1
     8    20     1    1
     9     1     2   ar
    10     2     3   ar
    11     3     4   ar
    12     4     5   ar
    13     5     6   ar
    14     5     7    1
    15     7     8    1
    16     8     9    1
    17     9    10    1
    18    10    11    1
    19    11    12    1
    20    12    16    1
    21    16    17    1
    22    17    18    1
    23    18    19    1
    24    12    13    1
    25    13    14    1
    26     9    15    1
    27    27    28    1
    28    28    29    1
    29    29    24    1
    30     6     1   ar
    31    14     9    1
    32    15     4    1
    33    19    16    1
