@<TRIPOS>MOLECULE
*****
 46 51 0 0 0
SMALL
GASTEIGER

@<TRIPOS>ATOM
      1 C          63.6199   90.2890   12.2382 C.ar    1  UNL1        0.0574
      2 C          63.1496   88.8670   12.1566 C.ar    1  UNL1       -0.0053
      3 C          62.2087   88.7558   10.9937 C.ar    1  UNL1        0.0132
      4 C          61.4389   87.5972   10.4327 C.ar    1  UNL1        0.0013
      5 C          60.5579   87.7919    9.2344 C.ar    1  UNL1        0.0046
      6 C          60.4467   89.1452    8.5972 C.ar    1  UNL1        0.0548
      7 C          61.2165   90.3039    9.1583 C.ar    1  UNL1        0.0217
      8 C          62.0975   90.1092   10.3565 C.ar    1  UNL1        0.0598
      9 N          62.9697   91.0567   11.1257 N.ar    1  UNL1       -0.3254
     10 C          63.1584   92.5158   10.8335 C.3     1  UNL1        0.1304
     11 C          66.4793   91.9587   15.2855 C.ar    1  UNL1        0.2250
     12 C          66.9213   91.7749   13.8639 C.ar    1  UNL1        0.0578
     13 C          65.9681   91.2183   12.8482 C.ar    1  UNL1        0.0078
     14 C          64.5730   90.8456   13.2540 C.ar    1  UNL1        0.0349
     15 C          64.1311   91.0294   14.6755 C.ar    1  UNL1        0.1034
     16 N          65.0842   91.5860   15.6913 N.ar    1  UNL1       -0.2101
     17 C          68.6595   93.2527   15.8534 C.3     1  UNL1        0.2542
     18 O          67.4324   92.5153   16.3012 O.3     1  UNL1       -0.4561
     19 C          63.5499   87.7518   13.0765 C.3     1  UNL1        0.0238
     20 C          63.3155   86.2889   12.8428 C.3     1  UNL1        0.0044
     21 C          63.8756   85.5367   14.0135 C.3     1  UNL1        0.0003
     22 C          64.4562   86.5349   14.9708 C.3     1  UNL1        0.0003
     23 C          64.2549   87.9039   14.3918 C.3     1  UNL1        0.0044
     24 C          59.5656   89.3399    7.3989 C.2     1  UNL1        0.2461
     25 O          58.8021   88.1794    6.8330 O.2     1  UNL1       -0.2701
     26 N          59.4481   90.6950    6.7666 N.am    1  UNL1       -0.2964
     27 H          59.9492   91.4566    7.1380 H       1  UNL1        0.1501
     28 C          58.5670   90.8896    5.5683 C.3     1  UNL1        0.1260
     29 C          57.3981   90.3541    6.3408 C.3     1  UNL1        0.0270
     30 C          56.5170   90.5487    5.1426 C.3     1  UNL1        0.0043
     31 C          57.6859   91.0843    4.3701 C.3     1  UNL1        0.0270
     32 C          59.7359   91.4252    4.7958 C.2     1  UNL1        0.2419
     33 O          61.1278   90.9845    5.1400 O.2     1  UNL1       -0.2731
     34 N          59.5130   92.4014    3.6789 N.am    1  UNL1       -0.2826
     35 H          58.5995   92.6906    3.4530 H       1  UNL1        0.1549
     36 C          60.6820   92.9369    2.9064 C.ar    1  UNL1        0.0503
     37 C          60.5685   94.2486    2.1877 C.ar    1  UNL1        0.0147
     38 C          61.7374   94.7842    1.4152 C.ar    1  UNL1        0.0013
     39 C          63.0198   94.0080    1.3613 C.ar    1  UNL1        0.0001
     40 C          63.1334   92.6963    2.0800 C.ar    1  UNL1        0.0013
     41 C          61.9644   92.1607    2.8526 C.ar    1  UNL1        0.0147
     42 C          64.1887   94.5435    0.5888 C.2     1  UNL1        0.0012
     43 C          63.9596   95.3511   -0.6543 C.2     1  UNL1        0.0151
     44 C          65.1285   95.8866   -1.4268 C.2     1  UNL1        0.0729
     45 O          66.2959   96.4868   -0.7007 O.co2   1  UNL1       -0.5446
     46 O          65.1302   95.8219   -2.9254 O.co2   1  UNL1       -0.5446
@<TRIPOS>UNITY_ATOM_ATTR
45 1
charge -1
@<TRIPOS>BOND
     1    17    18    1
     2    18    11    1
     3    11    12   ar
     4    12    13   ar
     5    13    14   ar
     6    14     1    1
     7     1     2   ar
     8     2    19    1
     9    19    20    1
    10    20    21    1
    11    21    22    1
    12    22    23    1
    13     2     3   ar
    14     3     4   ar
    15     4     5   ar
    16     5     6   ar
    17     6    24    1
    18    24    25    2
    19    24    26   am
    20    26    28    1
    21    28    32    1
    22    32    33    2
    23    32    34   am
    24    34    36    1
    25    36    37   ar
    26    37    38   ar
    27    38    39   ar
    28    39    42    1
    29    42    43    2
    30    43    44    1
    31    44    45   ar
    32    44    46   ar
    33    39    40   ar
    34    40    41   ar
    35    28    29    1
    36    29    30    1
    37    30    31    1
    38     6     7   ar
    39     7     8   ar
    40     8     9   ar
    41     9    10    1
    42    14    15   ar
    43    15    16   ar
    44    16    11   ar
    45     9     1   ar
    46    23    19    1
    47     8     3   ar
    48    31    28    1
    49    41    36   ar
    50    26    27    1
    51    34    35    1
@<TRIPOS>MOLECULE
*****
 46 51 0 0 0
SMALL
GASTEIGER

@<TRIPOS>ATOM
      1 C          62.3146   85.9295   10.6763 C.ar    1  UNL1        0.0574
      2 C          62.3712   87.3648   11.1083 C.ar    1  UNL1       -0.0053
      3 C          61.5855   88.1772   10.1220 C.ar    1  UNL1        0.0132
      4 C          61.2937   89.6461   10.0378 C.ar    1  UNL1        0.0013
      5 C          60.4597   90.1817    8.9120 C.ar    1  UNL1        0.0046
      6 C          59.9175   89.2484    7.8704 C.ar    1  UNL1        0.0548
      7 C          60.2092   87.7795    7.9546 C.ar    1  UNL1        0.0217
      8 C          61.0432   87.2439    9.0804 C.ar    1  UNL1        0.0598
      9 N          61.4938   85.8548    9.4230 N.ar    1  UNL1       -0.3254
     10 C          61.1790   84.6095    8.6482 C.3     1  UNL1        0.1304
     11 C          64.2645   82.4574   12.7722 C.ar    1  UNL1        0.2250
     12 C          63.1479   83.2048   13.4388 C.ar    1  UNL1        0.0578
     13 C          62.4979   84.3622   12.7402 C.ar    1  UNL1        0.0078
     14 C          62.9645   84.7722   11.3749 C.ar    1  UNL1        0.0349
     15 C          64.0812   84.0248   10.7082 C.ar    1  UNL1        0.1034
     16 N          64.7311   82.8674   11.4068 N.ar    1  UNL1       -0.2101
     17 C          64.0688   80.2306   14.0961 C.3     1  UNL1        0.2542
     18 O          64.9144   81.3001   13.4708 O.3     1  UNL1       -0.4561
     19 C          63.0877   87.8948   12.3149 C.3     1  UNL1        0.0238
     20 C          63.4042   89.3348   12.5905 C.3     1  UNL1        0.0044
     21 C          64.1257   89.4079   13.9036 C.3     1  UNL1        0.0003
     22 C          64.2550   88.0128   14.4395 C.3     1  UNL1        0.0003
     23 C          63.6136   87.0777   13.4576 C.3     1  UNL1        0.0044
     24 C          59.0835   89.7841    6.7445 C.2     1  UNL1        0.2461
     25 O          57.8102   89.0913    6.3589 O.2     1  UNL1       -0.2701
     26 N          59.5227   91.0126    6.0044 N.am    1  UNL1       -0.2964
     27 H          60.3584   91.4673    6.2575 H       1  UNL1        0.1501
     28 C          58.6887   91.5483    4.8785 C.3     1  UNL1        0.1260
     29 C          57.4487   91.0519    5.5610 C.3     1  UNL1        0.0270
     30 C          56.6146   91.5876    4.4353 C.3     1  UNL1        0.0043
     31 C          57.8547   92.0840    3.7527 C.3     1  UNL1        0.0270
     32 C          59.9287   92.0447    4.1960 C.2     1  UNL1        0.2419
     33 O          61.2779   91.5892    4.6677 O.2     1  UNL1       -0.2731
     34 N          59.8197   92.9965    3.0418 N.am    1  UNL1       -0.2826
     35 H          58.9343   93.2954    2.7322 H       1  UNL1        0.1549
     36 C          61.0599   93.4928    2.3593 C.ar    1  UNL1        0.0503
     37 C          62.2013   92.5542    2.1023 C.ar    1  UNL1        0.0147
     38 C          63.4414   93.0504    1.4199 C.ar    1  UNL1        0.0013
     39 C          63.5401   94.4855    0.9943 C.ar    1  UNL1        0.0001
     40 C          62.3987   95.4241    1.2513 C.ar    1  UNL1        0.0013
     41 C          61.1585   94.9278    1.9338 C.ar    1  UNL1        0.0147
     42 C          64.7802   94.9818    0.3118 C.2     1  UNL1        0.0012
     43 C          64.6821   96.0452   -0.7415 C.2     1  UNL1        0.0151
     44 C          65.9222   96.5415   -1.4240 C.2     1  UNL1        0.0729
     45 O          67.1513   96.8441   -0.6190 O.co2   1  UNL1       -0.5446
     46 O          65.9333   96.7351   -2.9114 O.co2   1  UNL1       -0.5446
@<TRIPOS>UNITY_ATOM_ATTR
45 1
charge -1
@<TRIPOS>BOND
     1    17    18    1
     2    18    11    1
     3    11    12   ar
     4    12    13   ar
     5    13    14   ar
     6    14     1    1
     7     1     2   ar
     8     2    19    1
     9    19    20    1
    10    20    21    1
    11    21    22    1
    12    22    23    1
    13     2     3   ar
    14     3     4   ar
    15     4     5   ar
    16     5     6   ar
    17     6    24    1
    18    24    25    2
    19    24    26   am
    20    26    28    1
    21    28    32    1
    22    32    33    2
    23    32    34   am
    24    34    36    1
    25    36    37   ar
    26    37    38   ar
    27    38    39   ar
    28    39    42    1
    29    42    43    2
    30    43    44    1
    31    44    45   ar
    32    44    46   ar
    33    39    40   ar
    34    40    41   ar
    35    28    29    1
    36    29    30    1
    37    30    31    1
    38     6     7   ar
    39     7     8   ar
    40     8     9   ar
    41     9    10    1
    42    14    15   ar
    43    15    16   ar
    44    16    11   ar
    45     9     1   ar
    46    23    19    1
    47     8     3   ar
    48    31    28    1
    49    41    36   ar
    50    26    27    1
    51    34    35    1
@<TRIPOS>MOLECULE
*****
 46 51 0 0 0
SMALL
GASTEIGER

@<TRIPOS>ATOM
      1 C          65.8914   92.1212   12.9862 C.ar    1  UNL1        0.0574
      2 C          65.5791   92.8342   11.7039 C.ar    1  UNL1       -0.0053
      3 C          64.4337   92.1238   11.0455 C.ar    1  UNL1        0.0132
      4 C          63.6999   92.3771    9.7621 C.ar    1  UNL1        0.0013
      5 C          62.5705   91.4784    9.3540 C.ar    1  UNL1        0.0046
      6 C          62.1748   90.3263   10.2293 C.ar    1  UNL1        0.0548
      7 C          62.9086   90.0730   11.5127 C.ar    1  UNL1        0.0217
      8 C          64.0381   90.9717   11.9209 C.ar    1  UNL1        0.0598
      9 N          64.9390   90.9701   13.1202 N.ar    1  UNL1       -0.3254
     10 C          64.8951   89.9895   14.2545 C.3     1  UNL1        0.1304
     11 C          69.1187   93.2390   15.9161 C.ar    1  UNL1        0.2250
     12 C          67.6769   93.4510   16.2715 C.ar    1  UNL1        0.0578
     13 C          66.6011   93.0783   15.2948 C.ar    1  UNL1        0.0078
     14 C          66.9671   92.4938   13.9628 C.ar    1  UNL1        0.0349
     15 C          68.4089   92.2818   13.6075 C.ar    1  UNL1        0.1034
     16 N          69.4847   92.6545   14.5841 N.ar    1  UNL1       -0.2101
     17 C          70.9896   92.5400   17.5777 C.3     1  UNL1        0.2542
     18 O          70.1944   93.6117   16.8928 O.3     1  UNL1       -0.4561
     19 C          66.2877   94.0450   11.1732 C.3     1  UNL1        0.0238
     20 C          66.1856   95.4374   11.7216 C.3     1  UNL1        0.0044
     21 C          67.0577   96.3290   10.8883 C.3     1  UNL1        0.0003
     22 C          67.6989   95.4876    9.8248 C.3     1  UNL1        0.0003
     23 C          67.2230   94.0760   10.0009 C.3     1  UNL1        0.0044
     24 C          61.0453   89.4275    9.8211 C.2     1  UNL1        0.2461
     25 O          60.0637   88.9436   10.8469 O.2     1  UNL1       -0.2701
     26 N          60.8975   89.0128    8.3872 N.am    1  UNL1       -0.2964
     27 H          61.5418   89.3304    7.7140 H       1  UNL1        0.1501
     28 C          59.7680   88.1140    7.9790 C.3     1  UNL1        0.1260
     29 C          59.2304   89.1943    7.0881 C.3     1  UNL1        0.0270
     30 C          58.1010   88.2957    6.6799 C.3     1  UNL1        0.0043
     31 C          58.6386   87.2153    7.5708 C.3     1  UNL1        0.0270
     32 C          60.3057   87.0336    8.8699 C.2     1  UNL1        0.2419
     33 O          59.3653   86.1989    9.6879 O.2     1  UNL1       -0.2731
     34 N          61.7836   86.7880    8.9429 N.am    1  UNL1       -0.2826
     35 H          62.4008   87.3358    8.4061 H       1  UNL1        0.1549
     36 C          62.3212   85.7076    9.8339 C.ar    1  UNL1        0.0503
     37 C          63.1734   84.6156    9.2582 C.ar    1  UNL1        0.0147
     38 C          63.7110   83.5352   10.1491 C.ar    1  UNL1        0.0013
     39 C          63.3964   83.5468   11.6157 C.ar    1  UNL1        0.0001
     40 C          62.5442   84.6387   12.1914 C.ar    1  UNL1        0.0013
     41 C          62.0066   85.7191   11.3004 C.ar    1  UNL1        0.0147
     42 C          63.9340   82.4664   12.5066 C.2     1  UNL1        0.0012
     43 C          63.0026   81.4524   13.1019 C.2     1  UNL1        0.0151
     44 C          63.5401   80.3721   13.9928 C.2     1  UNL1        0.0729
     45 O          62.7099   79.1569   14.2829 O.co2   1  UNL1       -0.5446
     46 O          64.9080   80.5068   14.5935 O.co2   1  UNL1       -0.5446
@<TRIPOS>UNITY_ATOM_ATTR
45 1
charge -1
@<TRIPOS>BOND
     1    17    18    1
     2    18    11    1
     3    11    12   ar
     4    12    13   ar
     5    13    14   ar
     6    14     1    1
     7     1     2   ar
     8     2    19    1
     9    19    20    1
    10    20    21    1
    11    21    22    1
    12    22    23    1
    13     2     3   ar
    14     3     4   ar
    15     4     5   ar
    16     5     6   ar
    17     6    24    1
    18    24    25    2
    19    24    26   am
    20    26    28    1
    21    28    32    1
    22    32    33    2
    23    32    34   am
    24    34    36    1
    25    36    37   ar
    26    37    38   ar
    27    38    39   ar
    28    39    42    1
    29    42    43    2
    30    43    44    1
    31    44    45   ar
    32    44    46   ar
    33    39    40   ar
    34    40    41   ar
    35    28    29    1
    36    29    30    1
    37    30    31    1
    38     6     7   ar
    39     7     8   ar
    40     8     9   ar
    41     9    10    1
    42    14    15   ar
    43    15    16   ar
    44    16    11   ar
    45     9     1   ar
    46    23    19    1
    47     8     3   ar
    48    31    28    1
    49    41    36   ar
    50    26    27    1
    51    34    35    1
@<TRIPOS>MOLECULE
*****
 46 51 0 0 0
SMALL
GASTEIGER

@<TRIPOS>ATOM
      1 C          62.0184   86.8398   11.5566 C.ar    1  UNL1        0.0574
      2 C          62.0710   85.9541   10.3471 C.ar    1  UNL1       -0.0053
      3 C          61.2954   86.6210    9.2501 C.ar    1  UNL1        0.0132
      4 C          61.0048   86.2142    7.8359 C.ar    1  UNL1        0.0013
      5 C          60.1822   87.1052    6.9531 C.ar    1  UNL1        0.0046
      6 C          59.6502   88.4031    7.4846 C.ar    1  UNL1        0.0548
      7 C          59.9408   88.8100    8.8988 C.ar    1  UNL1        0.0217
      8 C          60.7634   87.9189    9.7815 C.ar    1  UNL1        0.0598
      9 N          61.2102   88.0541   11.2070 N.ar    1  UNL1       -0.3254
     10 C          60.9028   89.2021   12.1222 C.3     1  UNL1        0.1304
     11 C          63.9466   86.0011   15.5352 C.ar    1  UNL1        0.2250
     12 C          64.3538   87.2087   14.7441 C.ar    1  UNL1        0.0578
     13 C          63.7111   87.4883   13.4179 C.ar    1  UNL1        0.0078
     14 C          62.6611   86.5602   12.8828 C.ar    1  UNL1        0.0349
     15 C          62.2540   85.3526   13.6739 C.ar    1  UNL1        0.1034
     16 N          62.8967   85.0731   15.0001 N.ar    1  UNL1       -0.2101
     17 C          63.7850   85.8315   18.1226 C.3     1  UNL1        0.2542
     18 O          64.5893   85.7215   16.8613 O.3     1  UNL1       -0.4561
     19 C          62.7756   84.6333   10.2515 C.3     1  UNL1        0.0238
     20 C          63.7678   84.2375    9.1985 C.3     1  UNL1        0.0044
     21 C          64.2171   82.8360    9.4883 C.3     1  UNL1        0.0003
     22 C          63.5026   82.3657   10.7205 C.3     1  UNL1        0.0003
     23 C          62.6117   83.4765   11.1922 C.3     1  UNL1        0.0044
     24 C          58.8275   89.2942    6.6017 C.2     1  UNL1        0.2461
     25 O          57.3486   89.0736    6.4829 O.2     1  UNL1       -0.2701
     26 N          59.4838   90.4057    5.8377 N.am    1  UNL1       -0.2964
     27 H          60.4545   90.5505    5.9157 H       1  UNL1        0.1501
     28 C          58.6612   91.2968    4.9549 C.3     1  UNL1        0.1260
     29 C          57.4092   90.7777    5.5976 C.3     1  UNL1        0.0270
     30 C          56.5866   91.6686    4.7148 C.3     1  UNL1        0.0043
     31 C          57.8385   92.1878    4.0721 C.3     1  UNL1        0.0270
     32 C          59.9131   91.8159    4.3122 C.2     1  UNL1        0.2419
     33 O          61.2546   91.3939    4.8341 O.2     1  UNL1       -0.2731
     34 N          59.8236   92.7571    3.1477 N.am    1  UNL1       -0.2826
     35 H          58.9432   93.0342    2.8052 H       1  UNL1        0.1549
     36 C          61.0757   93.2763    2.5050 C.ar    1  UNL1        0.0503
     37 C          62.2777   92.3880    2.3787 C.ar    1  UNL1        0.0147
     38 C          63.5297   92.9070    1.7361 C.ar    1  UNL1        0.0013
     39 C          63.5797   94.3145    1.2197 C.ar    1  UNL1        0.0001
     40 C          62.3776   95.2029    1.3460 C.ar    1  UNL1        0.0013
     41 C          61.1256   94.6837    1.9887 C.ar    1  UNL1        0.0147
     42 C          64.8317   94.8336    0.5770 C.2     1  UNL1        0.0012
     43 C          64.7505   95.9193   -0.4547 C.2     1  UNL1        0.0151
     44 C          66.0025   96.4384   -1.0974 C.2     1  UNL1        0.0729
     45 O          67.1671   96.8504   -0.2464 O.co2   1  UNL1       -0.5446
     46 O          66.0899   96.5456   -2.5910 O.co2   1  UNL1       -0.5446
@<TRIPOS>UNITY_ATOM_ATTR
45 1
charge -1
@<TRIPOS>BOND
     1    17    18    1
     2    18    11    1
     3    11    12   ar
     4    12    13   ar
     5    13    14   ar
     6    14     1    1
     7     1     2   ar
     8     2    19    1
     9    19    20    1
    10    20    21    1
    11    21    22    1
    12    22    23    1
    13     2     3   ar
    14     3     4   ar
    15     4     5   ar
    16     5     6   ar
    17     6    24    1
    18    24    25    2
    19    24    26   am
    20    26    28    1
    21    28    32    1
    22    32    33    2
    23    32    34   am
    24    34    36    1
    25    36    37   ar
    26    37    38   ar
    27    38    39   ar
    28    39    42    1
    29    42    43    2
    30    43    44    1
    31    44    45   ar
    32    44    46   ar
    33    39    40   ar
    34    40    41   ar
    35    28    29    1
    36    29    30    1
    37    30    31    1
    38     6     7   ar
    39     7     8   ar
    40     8     9   ar
    41     9    10    1
    42    14    15   ar
    43    15    16   ar
    44    16    11   ar
    45     9     1   ar
    46    23    19    1
    47     8     3   ar
    48    31    28    1
    49    41    36   ar
    50    26    27    1
    51    34    35    1
