@<TRIPOS>MOLECULE
*****
 39 43 0 0 0
SMALL
GASTEIGER

@<TRIPOS>ATOM
      1 C          62.8386   86.3003   12.0593 C.3     1  UNL1        0.1521
      2 C          62.8726   84.8580   12.4699 C.3     1  UNL1        0.0313
      3 C          63.5797   84.7684   13.7899 C.3     1  UNL1        0.0264
      4 C          63.9827   86.1554   14.1949 C.3     1  UNL1        0.0942
      5 N          63.5247   87.1021   13.1254 N.am    1  UNL1       -0.2727
      6 C          63.7186   88.5895   13.1224 C.2     1  UNL1        0.2320
      7 O          63.2033   89.4108   11.9779 O.2     1  UNL1       -0.2744
      8 O          62.8246   86.5082    9.4696 O.2     1  UNL1       -0.2730
      9 C          62.2261   86.8452   10.8031 C.2     1  UNL1        0.2442
     10 N          61.0151   87.7269   10.8804 N.am    1  UNL1       -0.2826
     11 H          60.6223   87.9481   11.7557 H       1  UNL1        0.1549
     12 C          60.4026   88.2717    9.6242 C.ar    1  UNL1        0.0505
     13 C          60.5420   89.7278    9.2921 C.ar    1  UNL1        0.0178
     14 C          59.9295   90.2726    8.0360 C.ar    1  UNL1        0.0388
     15 C          59.1776   89.3612    7.1118 C.ar    1  UNL1        0.1454
     16 C          59.0382   87.9051    7.4439 C.ar    1  UNL1        0.0388
     17 C          59.6507   87.3604    8.7000 C.ar    1  UNL1        0.0178
     18 O          58.5651   89.9061    5.8556 O.3     1  UNL1       -0.4535
     19 C          59.3583   90.8203    4.9698 C.ar    1  UNL1        0.1454
     20 C          60.8374   90.6211    4.8186 C.ar    1  UNL1        0.0398
     21 C          61.6306   91.5354    3.9327 C.ar    1  UNL1        0.0328
     22 C          60.9449   92.6489    3.1980 C.ar    1  UNL1        0.1403
     23 F          61.7382   93.5632    2.3122 F       1  UNL1       -0.2042
     24 C          59.4659   92.8482    3.3491 C.ar    1  UNL1        0.0328
     25 C          58.6726   91.9339    4.2350 C.ar    1  UNL1        0.0398
     26 C          63.8383   83.5124   14.5681 C.3     1  UNL1        0.0281
     27 C          63.1245   82.2443   14.2042 C.ar    1  UNL1       -0.0221
     28 C          63.8618   81.1445   13.4993 C.ar    1  UNL1       -0.0043
     29 C          63.1480   79.8764   13.1354 C.ar    1  UNL1       -0.0003
     30 C          61.6971   79.7081   13.4766 C.ar    1  UNL1       -0.0000
     31 C          60.9598   80.8079   14.1816 C.ar    1  UNL1       -0.0003
     32 C          61.6736   82.0760   14.5454 C.ar    1  UNL1       -0.0043
     33 C          64.4280   89.2557   14.2639 C.3     1  UNL1        0.1303
     34 C          64.9546   90.6515   14.1078 C.ar    1  UNL1        0.0634
     35 C          65.3947   91.5573   15.2194 C.ar    1  UNL1        0.1136
     36 N          65.8456   92.8522   14.6112 N.ar    1  UNL1       -0.2229
     37 C          65.6841   92.7466   13.1237 C.ar    1  UNL1        0.1748
     38 N          65.1334   91.3865   12.8125 N.ar    1  UNL1       -0.3378
     39 H          64.9258   91.0376   11.9157 H       1  UNL1        0.1672
@<TRIPOS>BOND
     1     8     9    2
     2     9    10   am
     3    10    12    1
     4    12    13   ar
     5    13    14   ar
     6    14    15   ar
     7    15    18    1
     8    18    19    1
     9    19    20   ar
    10    20    21   ar
    11    21    22   ar
    12    22    23    1
    13    22    24   ar
    14    24    25   ar
    15    15    16   ar
    16    16    17   ar
    17     1     9    1
    18     1     2    1
    19     2     3    1
    20     3    26    1
    21    26    27    1
    22    27    28   ar
    23    28    29   ar
    24    29    30   ar
    25    30    31   ar
    26    31    32   ar
    27     3     4    1
    28     4     5    1
    29     5     6   am
    30     6     7    2
    31     6    33    1
    32    33    34    1
    33    34    35   ar
    34    35    36   ar
    35    36    37   ar
    36    37    38   ar
    37    17    12   ar
    38     5     1    1
    39    38    34   ar
    40    25    19   ar
    41    32    27   ar
    42    10    11    1
    43    38    39    1
@<TRIPOS>MOLECULE
*****
 39 43 0 0 0
SMALL
GASTEIGER

@<TRIPOS>ATOM
      1 C          62.0506   93.3604    0.5914 C.3     1  UNL1        0.1521
      2 C          63.3255   94.1459    0.5033 C.3     1  UNL1        0.0313
      3 C          63.3577   94.8291   -0.8318 C.3     1  UNL1        0.0264
      4 C          62.1027   94.4657   -1.5687 C.3     1  UNL1        0.0942
      5 N          61.2949   93.5581   -0.6892 N.am    1  UNL1       -0.2727
      6 C          59.9650   92.9541   -1.0302 C.2     1  UNL1        0.2320
      7 O          59.2721   92.0605   -0.0446 O.2     1  UNL1       -0.2744
      8 O          62.3935   91.3061    2.1445 O.2     1  UNL1       -0.2730
      9 C          61.6091   92.5241    1.7557 C.2     1  UNL1        0.2442
     10 N          60.3832   92.9058    2.5312 N.am    1  UNL1       -0.2826
     11 H          59.8684   93.7052    2.2760 H       1  UNL1        0.1549
     12 C          59.9416   92.0695    3.6956 C.ar    1  UNL1        0.0505
     13 C          58.4925   92.0251    4.0804 C.ar    1  UNL1        0.0178
     14 C          58.0510   91.1888    5.2446 C.ar    1  UNL1        0.0388
     15 C          59.0586   90.3969    6.0242 C.ar    1  UNL1        0.1454
     16 C          60.5077   90.4413    5.6394 C.ar    1  UNL1        0.0388
     17 C          60.9492   91.2776    4.4751 C.ar    1  UNL1        0.0178
     18 O          58.6170   89.5605    7.1885 O.3     1  UNL1       -0.4535
     19 C          59.5815   88.6157    7.8418 C.ar    1  UNL1        0.1454
     20 C          60.5090   89.1113    8.9114 C.ar    1  UNL1        0.0398
     21 C          61.4736   88.1664    9.5647 C.ar    1  UNL1        0.0328
     22 C          61.5105   86.7258    9.1485 C.ar    1  UNL1        0.1403
     23 F          62.4750   85.7809    9.8018 F       1  UNL1       -0.2042
     24 C          60.5830   86.2301    8.0789 C.ar    1  UNL1        0.0328
     25 C          59.6185   87.1750    7.4256 C.ar    1  UNL1        0.0398
     26 C          64.4526   95.7192   -1.3405 C.3     1  UNL1        0.0281
     27 C          64.8268   95.6927   -2.7929 C.ar    1  UNL1       -0.0221
     28 C          65.5564   96.8539   -3.4006 C.ar    1  UNL1       -0.0043
     29 C          65.9306   96.8274   -4.8530 C.ar    1  UNL1       -0.0003
     30 C          65.5752   95.6398   -5.6975 C.ar    1  UNL1       -0.0000
     31 C          64.8455   94.4786   -5.0897 C.ar    1  UNL1       -0.0003
     32 C          64.4714   94.5051   -3.6374 C.ar    1  UNL1       -0.0043
     33 C          59.3278   93.2436   -2.3569 C.3     1  UNL1        0.1303
     34 C          58.1034   92.4884   -2.7818 C.ar    1  UNL1        0.0634
     35 C          57.7638   92.0763   -4.1835 C.ar    1  UNL1        0.1136
     36 N          56.4541   91.3459   -4.1475 N.ar    1  UNL1       -0.2229
     37 C          55.9844   91.3066   -2.7235 C.ar    1  UNL1        0.1748
     38 N          57.0037   92.0127   -1.8794 N.ar    1  UNL1       -0.3378
     39 H          56.9588   92.1413   -0.9044 H       1  UNL1        0.1672
@<TRIPOS>BOND
     1     8     9    2
     2     9    10   am
     3    10    12    1
     4    12    13   ar
     5    13    14   ar
     6    14    15   ar
     7    15    18    1
     8    18    19    1
     9    19    20   ar
    10    20    21   ar
    11    21    22   ar
    12    22    23    1
    13    22    24   ar
    14    24    25   ar
    15    15    16   ar
    16    16    17   ar
    17     1     9    1
    18     1     2    1
    19     2     3    1
    20     3    26    1
    21    26    27    1
    22    27    28   ar
    23    28    29   ar
    24    29    30   ar
    25    30    31   ar
    26    31    32   ar
    27     3     4    1
    28     4     5    1
    29     5     6   am
    30     6     7    2
    31     6    33    1
    32    33    34    1
    33    34    35   ar
    34    35    36   ar
    35    36    37   ar
    36    37    38   ar
    37    17    12   ar
    38     5     1    1
    39    38    34   ar
    40    25    19   ar
    41    32    27   ar
    42    10    11    1
    43    38    39    1
@<TRIPOS>MOLECULE
*****
 39 43 0 0 0
SMALL
GASTEIGER

@<TRIPOS>ATOM
      1 C          60.9490   88.7448   10.0903 C.3     1  UNL1        0.1521
      2 C          60.0738   89.3999    9.0632 C.3     1  UNL1        0.0313
      3 C          59.6671   88.3551    8.0666 C.3     1  UNL1        0.0264
      4 C          60.2910   87.0544    8.4778 C.3     1  UNL1        0.0942
      5 N          61.0833   87.2953    9.7285 N.am    1  UNL1       -0.2727
      6 C          61.8714   86.2672   10.4847 C.2     1  UNL1        0.2320
      7 O          62.6177   86.6579   11.7258 O.2     1  UNL1       -0.2744
      8 O          60.7187   90.1084   12.2898 O.2     1  UNL1       -0.2730
      9 C          61.5794   89.4207   11.2718 C.2     1  UNL1        0.2442
     10 N          63.0704   89.4089   11.4353 N.am    1  UNL1       -0.2826
     11 H          63.6353   88.9575   10.7672 H       1  UNL1        0.1549
     12 C          63.7007   90.0848   12.6169 C.ar    1  UNL1        0.0505
     13 C          63.6478   89.4362   13.9683 C.ar    1  UNL1        0.0178
     14 C          64.2781   90.1121   15.1497 C.ar    1  UNL1        0.0388
     15 C          64.9613   91.4366   14.9797 C.ar    1  UNL1        0.1454
     16 C          65.0142   92.0852   13.6283 C.ar    1  UNL1        0.0388
     17 C          64.3839   91.4093   12.4468 C.ar    1  UNL1        0.0178
     18 O          65.5917   92.1125   16.1612 O.3     1  UNL1       -0.4535
     19 C          66.9579   92.7191   16.0375 C.ar    1  UNL1        0.1454
     20 C          67.1215   94.0817   15.4320 C.ar    1  UNL1        0.0398
     21 C          68.4878   94.6883   15.3083 C.ar    1  UNL1        0.0328
     22 C          69.6905   93.9324   15.7901 C.ar    1  UNL1        0.1403
     23 F          71.0567   94.5390   15.6664 F       1  UNL1       -0.2042
     24 C          69.5269   92.5698   16.3955 C.ar    1  UNL1        0.0328
     25 C          68.1606   91.9632   16.5193 C.ar    1  UNL1        0.0398
     26 C          58.7905   88.5728    6.8691 C.3     1  UNL1        0.0281
     27 C          58.9523   89.8097    6.0360 C.ar    1  UNL1       -0.0221
     28 C          57.7506   90.6289    5.6686 C.ar    1  UNL1       -0.0043
     29 C          57.9124   91.8658    4.8355 C.ar    1  UNL1       -0.0003
     30 C          59.2758   92.2835    4.3701 C.ar    1  UNL1       -0.0000
     31 C          60.4774   91.4643    4.7376 C.ar    1  UNL1       -0.0003
     32 C          60.3156   90.2275    5.5706 C.ar    1  UNL1       -0.0043
     33 C          61.9133   84.8484    9.9997 C.3     1  UNL1        0.1303
     34 C          62.8438   83.8631   10.6427 C.ar    1  UNL1        0.0634
     35 C          64.0090   83.1892    9.9807 C.ar    1  UNL1        0.1136
     36 N          64.6578   82.2884   10.9894 N.ar    1  UNL1       -0.2229
     37 C          63.8936   82.4055   12.2748 C.ar    1  UNL1        0.1748
     38 N          62.7725   83.3787   12.0605 N.ar    1  UNL1       -0.3378
     39 H          62.1067   83.6517   12.7325 H       1  UNL1        0.1672
@<TRIPOS>BOND
     1     8     9    2
     2     9    10   am
     3    10    12    1
     4    12    13   ar
     5    13    14   ar
     6    14    15   ar
     7    15    18    1
     8    18    19    1
     9    19    20   ar
    10    20    21   ar
    11    21    22   ar
    12    22    23    1
    13    22    24   ar
    14    24    25   ar
    15    15    16   ar
    16    16    17   ar
    17     1     9    1
    18     1     2    1
    19     2     3    1
    20     3    26    1
    21    26    27    1
    22    27    28   ar
    23    28    29   ar
    24    29    30   ar
    25    30    31   ar
    26    31    32   ar
    27     3     4    1
    28     4     5    1
    29     5     6   am
    30     6     7    2
    31     6    33    1
    32    33    34    1
    33    34    35   ar
    34    35    36   ar
    35    36    37   ar
    36    37    38   ar
    37    17    12   ar
    38     5     1    1
    39    38    34   ar
    40    25    19   ar
    41    32    27   ar
    42    10    11    1
    43    38    39    1
@<TRIPOS>MOLECULE
*****
 39 43 0 0 0
SMALL
GASTEIGER

@<TRIPOS>ATOM
      1 C          60.0293   94.1623    0.6280 C.3     1  UNL1        0.1521
      2 C          58.9777   94.8869   -0.1588 C.3     1  UNL1        0.0313
      3 C          59.6630   95.9076   -1.0183 C.3     1  UNL1        0.0264
      4 C          61.1381   95.8137   -0.7626 C.3     1  UNL1        0.0942
      5 N          61.3644   94.7351    0.2549 N.am    1  UNL1       -0.2727
      6 C          62.6927   94.3047    0.8030 C.2     1  UNL1        0.2320
      7 O          62.7633   93.2056    1.8214 O.2     1  UNL1       -0.2744
      8 O          59.5240   91.6638    1.1302 O.2     1  UNL1       -0.2730
      9 C          59.7879   93.0586    1.6148 C.2     1  UNL1        0.2442
     10 N          59.8106   93.3497    3.0860 N.am    1  UNL1       -0.2826
     11 H          59.9838   94.2652    3.4041 H       1  UNL1        0.1549
     12 C          59.5692   92.2460    4.0728 C.ar    1  UNL1        0.0505
     13 C          58.1761   91.9547    4.5464 C.ar    1  UNL1        0.0178
     14 C          57.9348   90.8510    5.5331 C.ar    1  UNL1        0.0388
     15 C          59.0867   90.0387    6.0463 C.ar    1  UNL1        0.1454
     16 C          60.4798   90.3300    5.5727 C.ar    1  UNL1        0.0388
     17 C          60.7211   91.4336    4.5860 C.ar    1  UNL1        0.0178
     18 O          58.8454   88.9350    7.0331 O.3     1  UNL1       -0.4535
     19 C          59.8577   88.6507    8.1028 C.ar    1  UNL1        0.1454
     20 C          60.2488   89.7278    9.0706 C.ar    1  UNL1        0.0398
     21 C          61.2612   89.4435   10.1403 C.ar    1  UNL1        0.0328
     22 C          61.8824   88.0820   10.2422 C.ar    1  UNL1        0.1403
     23 F          62.8948   87.7977   11.3119 F       1  UNL1       -0.2042
     24 C          61.4913   87.0048    9.2744 C.ar    1  UNL1        0.0328
     25 C          60.4790   87.2891    8.2047 C.ar    1  UNL1        0.0398
     26 C          58.9912   96.8557   -1.9669 C.3     1  UNL1        0.0281
     27 C          57.6779   96.4872   -2.5911 C.ar    1  UNL1       -0.0221
     28 C          57.6454   95.8495   -3.9485 C.ar    1  UNL1       -0.0043
     29 C          56.3322   95.4810   -4.5727 C.ar    1  UNL1       -0.0003
     30 C          55.0516   95.7502   -3.8395 C.ar    1  UNL1       -0.0000
     31 C          55.0841   96.3879   -2.4821 C.ar    1  UNL1       -0.0003
     32 C          56.3973   96.7563   -1.8580 C.ar    1  UNL1       -0.0043
     33 C          63.9504   94.9734    0.3328 C.3     1  UNL1        0.1303
     34 C          64.2647   95.0344   -1.1326 C.ar    1  UNL1        0.0634
     35 C          64.8217   96.2181   -1.8664 C.ar    1  UNL1        0.1136
     36 N          64.9785   95.8375   -3.3088 N.ar    1  UNL1       -0.2229
     37 C          64.5184   94.4186   -3.4664 C.ar    1  UNL1        0.1748
     38 N          64.0773   93.9222   -2.1215 N.ar    1  UNL1       -0.3378
     39 H          63.7263   93.0241   -1.9227 H       1  UNL1        0.1672
@<TRIPOS>BOND
     1     8     9    2
     2     9    10   am
     3    10    12    1
     4    12    13   ar
     5    13    14   ar
     6    14    15   ar
     7    15    18    1
     8    18    19    1
     9    19    20   ar
    10    20    21   ar
    11    21    22   ar
    12    22    23    1
    13    22    24   ar
    14    24    25   ar
    15    15    16   ar
    16    16    17   ar
    17     1     9    1
    18     1     2    1
    19     2     3    1
    20     3    26    1
    21    26    27    1
    22    27    28   ar
    23    28    29   ar
    24    29    30   ar
    25    30    31   ar
    26    31    32   ar
    27     3     4    1
    28     4     5    1
    29     5     6   am
    30     6     7    2
    31     6    33    1
    32    33    34    1
    33    34    35   ar
    34    35    36   ar
    35    36    37   ar
    36    37    38   ar
    37    17    12   ar
    38     5     1    1
    39    38    34   ar
    40    25    19   ar
    41    32    27   ar
    42    10    11    1
    43    38    39    1
@<TRIPOS>MOLECULE
*****
 39 43 0 0 0
SMALL
GASTEIGER

@<TRIPOS>ATOM
      1 C          61.5118   94.5012    0.2559 C.3     1  UNL1        0.1521
      2 C          62.9662   94.6195   -0.0917 C.3     1  UNL1        0.0313
      3 C          63.0674   95.2008   -1.4709 C.3     1  UNL1        0.0264
      4 C          61.6754   95.4416   -1.9756 C.3     1  UNL1        0.0942
      5 N          60.7141   95.0093   -0.9084 N.am    1  UNL1       -0.2727
      6 C          59.2178   95.0736   -0.9909 C.2     1  UNL1        0.2320
      7 O          58.3821   94.6025    0.1622 O.2     1  UNL1       -0.2744
      8 O          60.3158   94.9029    2.5271 O.2     1  UNL1       -0.2730
      9 C          60.9533   93.9683    1.5420 C.2     1  UNL1        0.2442
     10 N          61.0323   92.5010    1.8431 N.am    1  UNL1       -0.2826
     11 H          61.4507   91.8877    1.1966 H       1  UNL1        0.1549
     12 C          60.4737   91.9681    3.1293 C.ar    1  UNL1        0.0505
     13 C          61.3766   91.2847    4.1129 C.ar    1  UNL1        0.0178
     14 C          60.8180   90.7518    5.3990 C.ar    1  UNL1        0.0388
     15 C          59.3566   90.9025    5.7015 C.ar    1  UNL1        0.1454
     16 C          58.4537   91.5860    4.7178 C.ar    1  UNL1        0.0388
     17 C          59.0123   92.1188    3.4317 C.ar    1  UNL1        0.0178
     18 O          58.7981   90.3696    6.9876 O.3     1  UNL1       -0.4535
     19 C          59.4150   89.1629    7.6303 C.ar    1  UNL1        0.1454
     20 C          60.3349   89.3260    8.8039 C.ar    1  UNL1        0.0398
     21 C          60.9519   88.1191    9.4466 C.ar    1  UNL1        0.0328
     22 C          60.6490   86.7494    8.9157 C.ar    1  UNL1        0.1403
     23 F          61.2660   85.5426    9.5584 F       1  UNL1       -0.2042
     24 C          59.7292   86.5863    7.7421 C.ar    1  UNL1        0.0328
     25 C          59.1122   87.7930    7.0994 C.ar    1  UNL1        0.0398
     26 C          64.3373   95.4903   -2.2147 C.3     1  UNL1        0.0281
     27 C          64.6148   94.8052   -3.5200 C.ar    1  UNL1       -0.0221
     28 C          64.3199   93.3429   -3.6771 C.ar    1  UNL1       -0.0043
     29 C          64.5974   92.6579   -4.9824 C.ar    1  UNL1       -0.0003
     30 C          65.1698   93.4352   -6.1305 C.ar    1  UNL1       -0.0000
     31 C          65.4648   94.8975   -5.9733 C.ar    1  UNL1       -0.0003
     32 C          65.1873   95.5825   -4.6681 C.ar    1  UNL1       -0.0043
     33 C          58.5571   95.6092   -2.2265 C.3     1  UNL1        0.1303
     34 C          57.0735   95.4747   -2.4021 C.ar    1  UNL1        0.0634
     35 C          56.2348   96.2063   -3.4077 C.ar    1  UNL1        0.1136
     36 N          54.8111   95.7687   -3.2300 N.ar    1  UNL1       -0.2229
     37 C          54.7700   94.7667   -2.1146 C.ar    1  UNL1        0.1748
     38 N          56.1682   94.5850   -1.6029 N.ar    1  UNL1       -0.3378
     39 H          56.4434   93.9867   -0.8710 H       1  UNL1        0.1672
@<TRIPOS>BOND
     1     8     9    2
     2     9    10   am
     3    10    12    1
     4    12    13   ar
     5    13    14   ar
     6    14    15   ar
     7    15    18    1
     8    18    19    1
     9    19    20   ar
    10    20    21   ar
    11    21    22   ar
    12    22    23    1
    13    22    24   ar
    14    24    25   ar
    15    15    16   ar
    16    16    17   ar
    17     1     9    1
    18     1     2    1
    19     2     3    1
    20     3    26    1
    21    26    27    1
    22    27    28   ar
    23    28    29   ar
    24    29    30   ar
    25    30    31   ar
    26    31    32   ar
    27     3     4    1
    28     4     5    1
    29     5     6   am
    30     6     7    2
    31     6    33    1
    32    33    34    1
    33    34    35   ar
    34    35    36   ar
    35    36    37   ar
    36    37    38   ar
    37    17    12   ar
    38     5     1    1
    39    38    34   ar
    40    25    19   ar
    41    32    27   ar
    42    10    11    1
    43    38    39    1
@<TRIPOS>MOLECULE
*****
 39 43 0 0 0
SMALL
GASTEIGER

@<TRIPOS>ATOM
      1 C          63.4288   86.4029   13.6194 C.3     1  UNL1        0.1521
      2 C          63.5051   85.4115   14.7425 C.3     1  UNL1        0.0313
      3 C          62.7343   84.1905   14.3360 C.3     1  UNL1        0.0264
      4 C          62.1817   84.4274   12.9617 C.3     1  UNL1        0.0942
      5 N          62.6110   85.7948   12.5189 N.am    1  UNL1       -0.2727
      6 C          62.2804   86.4406   11.2060 C.2     1  UNL1        0.2320
      7 O          62.7826   87.8208   10.9016 O.2     1  UNL1       -0.2744
      8 O          65.2331   88.0589   14.4869 O.2     1  UNL1       -0.2730
      9 C          64.0597   87.7637   13.6003 C.2     1  UNL1        0.2442
     10 N          63.5172   88.8293   12.6947 N.am    1  UNL1       -0.2826
     11 H          62.7470   88.6356   12.1129 H       1  UNL1        0.1549
     12 C          64.1481   90.1901   12.6756 C.ar    1  UNL1        0.0505
     13 C          64.9460   90.6635   13.8543 C.ar    1  UNL1        0.0178
     14 C          65.5768   92.0242   13.8351 C.ar    1  UNL1        0.0388
     15 C          65.4098   92.9115   12.6373 C.ar    1  UNL1        0.1454
     16 C          64.6119   92.4382   11.4587 C.ar    1  UNL1        0.0388
     17 C          63.9811   91.0774   11.4778 C.ar    1  UNL1        0.0178
     18 O          66.0407   94.2723   12.6182 O.3     1  UNL1       -0.4535
     19 C          66.4796   94.8773   11.3177 C.ar    1  UNL1        0.1454
     20 C          66.0102   96.2489   10.9324 C.ar    1  UNL1        0.0398
     21 C          66.4492   96.8539    9.6318 C.ar    1  UNL1        0.0328
     22 C          67.3574   96.0874    8.7167 C.ar    1  UNL1        0.1403
     23 F          67.7963   96.6924    7.4162 F       1  UNL1       -0.2042
     24 C          67.8267   94.7158    9.1021 C.ar    1  UNL1        0.0328
     25 C          67.3878   94.1108   10.4025 C.ar    1  UNL1        0.0398
     26 C          62.5487   82.9504   15.1593 C.3     1  UNL1        0.0281
     27 C          62.2153   81.6495   14.4910 C.ar    1  UNL1       -0.0221
     28 C          60.8047   81.1397   14.5040 C.ar    1  UNL1       -0.0043
     29 C          60.4713   79.8388   13.8357 C.ar    1  UNL1       -0.0003
     30 C          61.5485   79.0478   13.1546 C.ar    1  UNL1       -0.0000
     31 C          62.9592   79.5577   13.1418 C.ar    1  UNL1       -0.0003
     32 C          63.2925   80.8585   13.8100 C.ar    1  UNL1       -0.0043
     33 C          61.4476   85.7061   10.1975 C.3     1  UNL1        0.1303
     34 C          60.5825   86.4704    9.2397 C.ar    1  UNL1        0.0634
     35 C          60.1804   86.0234    7.8655 C.ar    1  UNL1        0.1136
     36 N          59.3169   87.0927    7.2644 N.ar    1  UNL1       -0.2229
     37 C          59.1854   88.2003    8.2672 C.ar    1  UNL1        0.1748
     38 N          59.9675   87.8158    9.4880 N.ar    1  UNL1       -0.3378
     39 H          60.0608   88.3522   10.3082 H       1  UNL1        0.1672
@<TRIPOS>BOND
     1     8     9    2
     2     9    10   am
     3    10    12    1
     4    12    13   ar
     5    13    14   ar
     6    14    15   ar
     7    15    18    1
     8    18    19    1
     9    19    20   ar
    10    20    21   ar
    11    21    22   ar
    12    22    23    1
    13    22    24   ar
    14    24    25   ar
    15    15    16   ar
    16    16    17   ar
    17     1     9    1
    18     1     2    1
    19     2     3    1
    20     3    26    1
    21    26    27    1
    22    27    28   ar
    23    28    29   ar
    24    29    30   ar
    25    30    31   ar
    26    31    32   ar
    27     3     4    1
    28     4     5    1
    29     5     6   am
    30     6     7    2
    31     6    33    1
    32    33    34    1
    33    34    35   ar
    34    35    36   ar
    35    36    37   ar
    36    37    38   ar
    37    17    12   ar
    38     5     1    1
    39    38    34   ar
    40    25    19   ar
    41    32    27   ar
    42    10    11    1
    43    38    39    1
@<TRIPOS>MOLECULE
*****
 39 43 0 0 0
SMALL
GASTEIGER

@<TRIPOS>ATOM
      1 C          60.5520   89.3856    9.2009 C.3     1  UNL1        0.1521
      2 C          59.9418   90.3434    8.2210 C.3     1  UNL1        0.0313
      3 C          59.3747   89.5452    7.0845 C.3     1  UNL1        0.0264
      4 C          59.6344   88.0941    7.3622 C.3     1  UNL1        0.0942
      5 N          60.3620   87.9955    8.6702 N.am    1  UNL1       -0.2727
      6 C          60.8194   86.7293    9.3315 C.2     1  UNL1        0.2320
      7 O          61.5392   86.7873   10.6462 O.2     1  UNL1       -0.2744
      8 O          60.4154   90.1135   11.6912 O.2     1  UNL1       -0.2730
      9 C          61.2326   89.7534   10.4861 C.2     1  UNL1        0.2442
     10 N          62.7305   89.7611   10.5660 N.am    1  UNL1       -0.2826
     11 H          63.2668   89.5248    9.7749 H       1  UNL1        0.1549
     12 C          63.4111   90.1289   11.8511 C.ar    1  UNL1        0.0505
     13 C          64.0184   91.4906   12.0151 C.ar    1  UNL1        0.0178
     14 C          64.6990   91.8584   13.3002 C.ar    1  UNL1        0.0388
     15 C          64.7724   90.8644   14.4212 C.ar    1  UNL1        0.1454
     16 C          64.1651   89.5028   14.2572 C.ar    1  UNL1        0.0388
     17 C          63.4845   89.1350   12.9721 C.ar    1  UNL1        0.0178
     18 O          65.4530   91.2323   15.7064 O.3     1  UNL1       -0.4535
     19 C          66.6710   92.1075   15.6862 C.ar    1  UNL1        0.1454
     20 C          66.6163   93.4538   15.0272 C.ar    1  UNL1        0.0398
     21 C          67.8344   94.3290   15.0070 C.ar    1  UNL1        0.0328
     22 C          69.1072   93.8578   15.6458 C.ar    1  UNL1        0.1403
     23 F          70.3252   94.7330   15.6256 F       1  UNL1       -0.2042
     24 C          69.1619   92.5115   16.3048 C.ar    1  UNL1        0.0328
     25 C          67.9439   91.6363   16.3250 C.ar    1  UNL1        0.0398
     26 C          58.6714   90.1005    5.8816 C.3     1  UNL1        0.0281
     27 C          59.4199   90.9578    4.9045 C.ar    1  UNL1       -0.0221
     28 C          58.6829   91.9654    4.0728 C.ar    1  UNL1       -0.0043
     29 C          59.4314   92.8228    3.0957 C.ar    1  UNL1       -0.0003
     30 C          60.9167   92.6725    2.9503 C.ar    1  UNL1       -0.0000
     31 C          61.6537   91.6648    3.7821 C.ar    1  UNL1       -0.0003
     32 C          60.9052   90.8076    4.7591 C.ar    1  UNL1       -0.0043
     33 C          60.5570   85.4048    8.6780 C.3     1  UNL1        0.1303
     34 C          61.3354   85.0016    7.4608 C.ar    1  UNL1        0.0634
     35 C          62.8295   85.0068    7.3280 C.ar    1  UNL1        0.1136
     36 N          63.1738   84.5308    5.9478 N.ar    1  UNL1       -0.2229
     37 C          61.8925   84.2316    5.2277 C.ar    1  UNL1        0.1748
     38 N          60.7563   84.5225    6.1627 N.ar    1  UNL1       -0.3378
     39 H          59.7987   84.4175    5.9600 H       1  UNL1        0.1672
@<TRIPOS>BOND
     1     8     9    2
     2     9    10   am
     3    10    12    1
     4    12    13   ar
     5    13    14   ar
     6    14    15   ar
     7    15    18    1
     8    18    19    1
     9    19    20   ar
    10    20    21   ar
    11    21    22   ar
    12    22    23    1
    13    22    24   ar
    14    24    25   ar
    15    15    16   ar
    16    16    17   ar
    17     1     9    1
    18     1     2    1
    19     2     3    1
    20     3    26    1
    21    26    27    1
    22    27    28   ar
    23    28    29   ar
    24    29    30   ar
    25    30    31   ar
    26    31    32   ar
    27     3     4    1
    28     4     5    1
    29     5     6   am
    30     6     7    2
    31     6    33    1
    32    33    34    1
    33    34    35   ar
    34    35    36   ar
    35    36    37   ar
    36    37    38   ar
    37    17    12   ar
    38     5     1    1
    39    38    34   ar
    40    25    19   ar
    41    32    27   ar
    42    10    11    1
    43    38    39    1
