@<TRIPOS>MOLECULE
*****
 39 44 0 0 0
SMALL
GASTEIGER

@<TRIPOS>ATOM
      1 C          60.5247   92.1723    3.6378 C.3     1  UNL1        0.0616
      2 C          61.4187   91.2276    4.3849 C.3     1  UNL1        0.0375
      3 C          60.8410   90.3088    5.4203 C.3     1  UNL1        0.0949
      4 N          59.3691   90.3347    5.7085 N.am    1  UNL1       -0.2773
      5 C          58.7913   89.4159    6.7438 C.2     1  UNL1        0.2553
      6 O          57.3195   89.4419    7.0320 O.2     1  UNL1       -0.2720
      7 C          58.4752   91.2795    4.9613 C.3     1  UNL1        0.0949
      8 C          59.0529   92.1982    3.9260 C.3     1  UNL1        0.0375
      9 C          64.3396   96.3086   -1.3447 C.3     1  UNL1        0.0742
     10 C          64.2749   95.2363   -0.2978 C.ar    1  UNL1        0.1477
     11 N          65.4276   94.4100    0.1904 N.ar    1  UNL1       -0.1333
     12 N          64.9112   93.4650    1.2346 N.ar    1  UNL1       -0.1319
     13 C          63.4393   93.7073    1.3918 C.ar    1  UNL1        0.1636
     14 N          63.0460   94.8021    0.4447 N.ar    1  UNL1       -0.2743
     15 C          61.6906   95.4057    0.2240 C.ar    1  UNL1        0.0935
     16 S          61.4262   96.5051   -0.7616 S.2     1  UNL1       -0.0692
     17 C          59.9661   96.8425   -0.6989 C.ar    1  UNL1        0.0366
     18 C          59.3280   95.9517    0.3255 C.ar    1  UNL1        0.0061
     19 C          60.3939   95.0637    0.8959 C.ar    1  UNL1        0.0168
     20 C          60.1321   94.0337    1.9543 C.3     1  UNL1        0.1014
     21 N          61.1025   93.0911    2.6024 N.3     1  UNL1       -0.2637
     22 C          62.5744   92.9459    2.3520 C.3     1  UNL1        0.1396
     23 C          59.6853   88.4712    7.4910 C.3     1  UNL1        0.2042
     24 F          59.3234   87.6126    6.3155 F       1  UNL1       -0.2306
     25 C          59.7368   89.6580    8.4070 C.3     1  UNL1        0.0590
     26 C          60.5566   89.6018    9.6619 C.3     1  UNL1        0.0756
     27 N          61.3249   88.3588   10.0008 N.3     1  UNL1       -0.2688
     28 C          61.2734   87.1721    9.0848 C.3     1  UNL1        0.0756
     29 C          60.4537   87.2283    7.8298 C.3     1  UNL1        0.0590
     30 C          62.1447   88.3026   11.2557 C.3     1  UNL1        0.0993
     31 C          62.8995   89.5154   11.7134 C.ar    1  UNL1       -0.0018
     32 C          63.1598   89.7295   13.1751 C.ar    1  UNL1        0.0179
     33 C          63.9145   90.9422   13.6327 C.ar    1  UNL1        0.1000
     34 N          64.4090   91.9410   12.6288 N.ar    1  UNL1       -0.2296
     35 C          64.1487   91.7269   11.1671 C.ar    1  UNL1        0.1251
     36 N          64.6431   92.7257   10.1632 N.pl3   1  UNL1       -0.3426
     37 C          63.3939   90.5142   10.7094 C.ar    1  UNL1        0.0310
     38 H          65.1385   93.5217   10.4636 H       1  UNL1        0.1437
     39 H          64.4723   92.5853    9.2038 H       1  UNL1        0.1437
@<TRIPOS>BOND
     1     9    10    1
     2    10    11   ar
     3    11    12   ar
     4    12    13   ar
     5    13    14   ar
     6    14    15    1
     7    15    16   ar
     8    16    17   ar
     9    17    18   ar
    10    18    19   ar
    11    19    20    1
    12    20    21    1
    13    21     1    1
    14     1     2    1
    15     2     3    1
    16     3     4    1
    17     4     5   am
    18     5     6    2
    19     5    23    1
    20    23    24    1
    21    23    25    1
    22    25    26    1
    23    26    27    1
    24    27    30    1
    25    30    31    1
    26    31    32   ar
    27    32    33   ar
    28    33    34   ar
    29    34    35   ar
    30    35    36    1
    31    35    37   ar
    32    27    28    1
    33    28    29    1
    34     4     7    1
    35     7     8    1
    36    21    22    1
    37    14    10   ar
    38    19    15   ar
    39     8     1    1
    40    22    13    1
    41    29    23    1
    42    37    31   ar
    43    36    38    1
    44    36    39    1
@<TRIPOS>MOLECULE
*****
 39 44 0 0 0
SMALL
GASTEIGER

@<TRIPOS>ATOM
      1 C          72.4694   79.3142   10.6418 C.3     1  UNL1        0.0616
      2 C          72.8263   77.9155   11.0494 C.3     1  UNL1        0.0375
      3 C          72.7454   77.5108   12.4915 C.3     1  UNL1        0.0949
      4 N          72.3077   78.5050   13.5260 N.am    1  UNL1       -0.2773
      5 C          72.2269   78.1003   14.9681 C.2     1  UNL1        0.2553
      6 O          71.7891   79.0944   16.0026 O.2     1  UNL1       -0.2720
      7 C          71.9508   79.9037   13.1183 C.3     1  UNL1        0.0949
      8 C          72.0316   80.3083   11.6762 C.3     1  UNL1        0.0375
      9 C          72.5720   82.2947    3.7429 C.3     1  UNL1        0.0742
     10 C          72.3464   82.4045    5.2218 C.ar    1  UNL1        0.1477
     11 N          71.9137   83.6372    5.9585 N.ar    1  UNL1       -0.1333
     12 N          71.8138   83.2954    7.4157 N.ar    1  UNL1       -0.1319
     13 C          72.1848   81.8513    7.5795 C.ar    1  UNL1        0.1636
     14 N          72.5140   81.3006    6.2235 N.ar    1  UNL1       -0.2743
     15 C          72.9406   79.9100    5.8572 C.ar    1  UNL1        0.0935
     16 S          73.2431   79.4816    4.4519 S.2     1  UNL1       -0.0692
     17 C          73.6328   78.0335    4.4825 C.ar    1  UNL1        0.0366
     18 C          73.5712   77.5668    5.9067 C.ar    1  UNL1        0.0061
     19 C          73.1434   78.7266    6.7564 C.ar    1  UNL1        0.0168
     20 C          72.9697   78.6415    8.2438 C.3     1  UNL1        0.1014
     21 N          72.5502   79.7188    9.1996 N.3     1  UNL1       -0.2637
     22 C          72.2009   81.1473    8.9039 C.3     1  UNL1        0.1396
     23 C          72.5837   76.7016   15.3757 C.3     1  UNL1        0.2042
     24 F          73.6314   77.4675   16.1280 F       1  UNL1       -0.2306
     25 C          71.4121   76.4216   14.4819 C.3     1  UNL1        0.0590
     26 C          70.9612   75.0087   14.2569 C.3     1  UNL1        0.0756
     27 N          71.6820   73.8759   14.9258 N.3     1  UNL1       -0.2688
     28 C          72.8536   74.1560   15.8197 C.3     1  UNL1        0.0756
     29 C          73.3044   75.5689   16.0446 C.3     1  UNL1        0.0590
     30 C          71.2311   72.4631   14.7009 C.3     1  UNL1        0.0993
     31 C          71.0755   71.9389   13.3042 C.ar    1  UNL1       -0.0018
     32 C          72.1883   72.1053   12.3122 C.ar    1  UNL1        0.0179
     33 C          72.0326   71.5811   10.9155 C.ar    1  UNL1        0.1000
     34 N          70.7642   70.8905   10.5106 N.ar    1  UNL1       -0.2296
     35 C          69.6513   70.7241   11.5025 C.ar    1  UNL1        0.1251
     36 N          68.3828   70.0335   11.0976 N.pl3   1  UNL1       -0.3426
     37 C          69.8070   71.2483   12.8993 C.ar    1  UNL1        0.0310
     38 H          68.2806   69.6894   10.1809 H       1  UNL1        0.1437
     39 H          67.6524   69.9242   11.7487 H       1  UNL1        0.1437
@<TRIPOS>BOND
     1     9    10    1
     2    10    11   ar
     3    11    12   ar
     4    12    13   ar
     5    13    14   ar
     6    14    15    1
     7    15    16   ar
     8    16    17   ar
     9    17    18   ar
    10    18    19   ar
    11    19    20    1
    12    20    21    1
    13    21     1    1
    14     1     2    1
    15     2     3    1
    16     3     4    1
    17     4     5   am
    18     5     6    2
    19     5    23    1
    20    23    24    1
    21    23    25    1
    22    25    26    1
    23    26    27    1
    24    27    30    1
    25    30    31    1
    26    31    32   ar
    27    32    33   ar
    28    33    34   ar
    29    34    35   ar
    30    35    36    1
    31    35    37   ar
    32    27    28    1
    33    28    29    1
    34     4     7    1
    35     7     8    1
    36    21    22    1
    37    14    10   ar
    38    19    15   ar
    39     8     1    1
    40    22    13    1
    41    29    23    1
    42    37    31   ar
    43    36    38    1
    44    36    39    1
@<TRIPOS>MOLECULE
*****
 39 44 0 0 0
SMALL
GASTEIGER

@<TRIPOS>ATOM
      1 C          62.1229   89.8600   10.8148 C.3     1  UNL1        0.0616
      2 C          61.2788   90.8226   10.0334 C.3     1  UNL1        0.0375
      3 C          60.4472   90.3308    8.8860 C.3     1  UNL1        0.0949
      4 N          60.4599   88.8761    8.5200 N.am    1  UNL1       -0.2773
      5 C          59.6284   88.3842    7.3725 C.2     1  UNL1        0.2553
      6 O          59.6411   86.9296    7.0065 O.2     1  UNL1       -0.2720
      7 C          61.3041   87.9135    9.3014 C.3     1  UNL1        0.0949
      8 C          62.1357   88.4054   10.4488 C.3     1  UNL1        0.0375
      9 C          66.8361   92.8600   15.8421 C.3     1  UNL1        0.0742
     10 C          66.3527   92.6804   14.4335 C.ar    1  UNL1        0.1477
     11 N          66.9410   93.3203   13.2111 N.ar    1  UNL1       -0.1333
     12 N          66.1480   92.8648   12.0221 N.ar    1  UNL1       -0.1319
     13 C          65.0695   91.9433   12.5098 C.ar    1  UNL1        0.1636
     14 N          65.1960   91.8294   14.0001 N.ar    1  UNL1       -0.2743
     15 C          64.3561   91.0298   14.9516 C.ar    1  UNL1        0.0935
     16 S          64.5874   90.9998   16.4333 S.2     1  UNL1       -0.0692
     17 C          63.5566   90.0982   17.0452 C.ar    1  UNL1        0.0366
     18 C          62.6882   89.5709   15.9417 C.ar    1  UNL1        0.0061
     19 C          63.1824   90.1466   14.6477 C.ar    1  UNL1        0.0168
     20 C          62.5586   89.8450   13.3174 C.3     1  UNL1        0.1014
     21 N          62.9545   90.3519   11.9623 N.3     1  UNL1       -0.2637
     22 C          64.0720   91.2858   11.6029 C.3     1  UNL1        0.1396
     23 C          58.7842   89.3469    6.5912 C.3     1  UNL1        0.2042
     24 F          57.7100   88.5499    7.2700 F       1  UNL1       -0.2306
     25 C          60.1518   89.8095    6.1838 C.3     1  UNL1        0.0590
     26 C          60.3020   90.9580    5.2307 C.3     1  UNL1        0.0756
     27 N          59.0846   91.6439    4.6850 N.3     1  UNL1       -0.2688
     28 C          57.7172   91.1813    5.0925 C.3     1  UNL1        0.0756
     29 C          57.5670   90.0328    6.0456 C.3     1  UNL1        0.0590
     30 C          59.2348   92.7925    3.7319 C.3     1  UNL1        0.0993
     31 C          60.2366   92.7166    2.6181 C.ar    1  UNL1       -0.0018
     32 C          59.7805   92.8054    1.1918 C.ar    1  UNL1        0.0179
     33 C          60.7823   92.7295    0.0780 C.ar    1  UNL1        0.1000
     34 N          62.2401   92.5650    0.3903 N.ar    1  UNL1       -0.2296
     35 C          62.6962   92.4762    1.8166 C.ar    1  UNL1        0.1251
     36 N          64.1540   92.3117    2.1290 N.pl3   1  UNL1       -0.3426
     37 C          61.6944   92.5521    2.9304 C.ar    1  UNL1        0.0310
     38 H          64.8115   92.2619    1.3979 H       1  UNL1        0.1437
     39 H          64.4534   92.2534    3.0650 H       1  UNL1        0.1437
@<TRIPOS>BOND
     1     9    10    1
     2    10    11   ar
     3    11    12   ar
     4    12    13   ar
     5    13    14   ar
     6    14    15    1
     7    15    16   ar
     8    16    17   ar
     9    17    18   ar
    10    18    19   ar
    11    19    20    1
    12    20    21    1
    13    21     1    1
    14     1     2    1
    15     2     3    1
    16     3     4    1
    17     4     5   am
    18     5     6    2
    19     5    23    1
    20    23    24    1
    21    23    25    1
    22    25    26    1
    23    26    27    1
    24    27    30    1
    25    30    31    1
    26    31    32   ar
    27    32    33   ar
    28    33    34   ar
    29    34    35   ar
    30    35    36    1
    31    35    37   ar
    32    27    28    1
    33    28    29    1
    34     4     7    1
    35     7     8    1
    36    21    22    1
    37    14    10   ar
    38    19    15   ar
    39     8     1    1
    40    22    13    1
    41    29    23    1
    42    37    31   ar
    43    36    38    1
    44    36    39    1
@<TRIPOS>MOLECULE
*****
 39 44 0 0 0
SMALL
GASTEIGER

@<TRIPOS>ATOM
      1 C          57.0977   95.0592   -2.0397 C.3     1  UNL1        0.0616
      2 C          56.7542   95.0433   -3.4997 C.3     1  UNL1        0.0375
      3 C          55.3914   95.4746   -3.9543 C.3     1  UNL1        0.0949
      4 N          54.3720   95.9217   -2.9488 N.am    1  UNL1       -0.2773
      5 C          53.0092   96.3530   -3.4034 C.2     1  UNL1        0.2553
      6 O          51.9899   96.8001   -2.3978 O.2     1  UNL1       -0.2720
      7 C          54.7156   95.9375   -1.4888 C.3     1  UNL1        0.0949
      8 C          56.0784   95.5063   -1.0342 C.3     1  UNL1        0.0375
      9 C          63.5096   92.8543    1.2029 C.3     1  UNL1        0.0742
     10 C          62.0580   93.2254    1.2731 C.ar    1  UNL1        0.1477
     11 N          61.2133   93.2505    2.5123 N.ar    1  UNL1       -0.1333
     12 N          59.8293   93.6772    2.1216 N.ar    1  UNL1       -0.1319
     13 C          59.8187   93.9158    0.6407 C.ar    1  UNL1        0.1636
     14 N          61.1961   93.6366    0.1163 N.ar    1  UNL1       -0.2743
     15 C          61.6962   93.7296   -1.2949 C.ar    1  UNL1        0.0935
     16 S          63.1091   93.4209   -1.6928 S.2     1  UNL1       -0.0692
     17 C          63.2286   93.6252   -3.1740 C.ar    1  UNL1        0.0366
     18 C          61.8895   94.0603   -3.6915 C.ar    1  UNL1        0.0061
     19 C          60.9425   94.1247   -2.5301 C.ar    1  UNL1        0.0168
     20 C          59.5026   94.5245   -2.6593 C.3     1  UNL1        0.1014
     21 N          58.4606   94.6279   -1.5851 N.3     1  UNL1       -0.2637
     22 C          58.6014   94.3570   -0.1165 C.3     1  UNL1        0.1396
     23 C          52.6657   96.3372   -4.8634 C.3     1  UNL1        0.2042
     24 F          54.1470   96.5581   -4.9467 F       1  UNL1       -0.2306
     25 C          51.3037   96.1217   -4.2730 C.3     1  UNL1        0.0590
     26 C          50.1126   95.9672   -5.1716 C.3     1  UNL1        0.0756
     27 N          50.2836   96.0281   -6.6606 N.3     1  UNL1       -0.2688
     28 C          51.6456   96.2435   -7.2509 C.3     1  UNL1        0.0756
     29 C          52.8367   96.3981   -6.3523 C.3     1  UNL1        0.0590
     30 C          49.0925   95.8735   -7.5592 C.3     1  UNL1        0.0993
     31 C          48.1923   94.6827   -7.4131 C.ar    1  UNL1       -0.0018
     32 C          48.7501   93.2981   -7.5608 C.ar    1  UNL1        0.0179
     33 C          47.8499   92.1073   -7.4147 C.ar    1  UNL1        0.1000
     34 N          46.3918   92.3009   -7.1208 N.ar    1  UNL1       -0.2296
     35 C          45.8339   93.6854   -6.9731 C.ar    1  UNL1        0.1251
     36 N          44.3758   93.8791   -6.6792 N.pl3   1  UNL1       -0.3426
     37 C          46.7342   94.8763   -7.1192 C.ar    1  UNL1        0.0310
     38 H          43.7849   93.0975   -6.5833 H       1  UNL1        0.1437
     39 H          44.0096   94.7878   -6.5823 H       1  UNL1        0.1437
@<TRIPOS>BOND
     1     9    10    1
     2    10    11   ar
     3    11    12   ar
     4    12    13   ar
     5    13    14   ar
     6    14    15    1
     7    15    16   ar
     8    16    17   ar
     9    17    18   ar
    10    18    19   ar
    11    19    20    1
    12    20    21    1
    13    21     1    1
    14     1     2    1
    15     2     3    1
    16     3     4    1
    17     4     5   am
    18     5     6    2
    19     5    23    1
    20    23    24    1
    21    23    25    1
    22    25    26    1
    23    26    27    1
    24    27    30    1
    25    30    31    1
    26    31    32   ar
    27    32    33   ar
    28    33    34   ar
    29    34    35   ar
    30    35    36    1
    31    35    37   ar
    32    27    28    1
    33    28    29    1
    34     4     7    1
    35     7     8    1
    36    21    22    1
    37    14    10   ar
    38    19    15   ar
    39     8     1    1
    40    22    13    1
    41    29    23    1
    42    37    31   ar
    43    36    38    1
    44    36    39    1
@<TRIPOS>MOLECULE
*****
 39 44 0 0 0
SMALL
GASTEIGER

@<TRIPOS>ATOM
      1 C          62.2044   89.9392   10.8543 C.3     1  UNL1        0.0616
      2 C          61.2971   90.8318   10.0606 C.3     1  UNL1        0.0375
      3 C          60.4586   90.2585    8.9570 C.3     1  UNL1        0.0949
      4 N          60.5273   88.7924    8.6471 N.am    1  UNL1       -0.2773
      5 C          59.6887   88.2190    7.5435 C.2     1  UNL1        0.2553
      6 O          59.7575   86.7530    7.2337 O.2     1  UNL1       -0.2720
      7 C          61.4347   87.8998    9.4409 C.3     1  UNL1        0.0949
      8 C          62.2732   88.4732   10.5445 C.3     1  UNL1        0.0375
      9 C          65.7720   92.2872   17.0388 C.3     1  UNL1        0.0742
     10 C          64.6890   91.5007   16.3616 C.ar    1  UNL1        0.1477
     11 N          63.6489   90.6632   17.0446 N.ar    1  UNL1       -0.1333
     12 N          62.7731   90.0585   15.9876 N.ar    1  UNL1       -0.1319
     13 C          63.2720   90.5222   14.6512 C.ar    1  UNL1        0.1636
     14 N          64.4562   91.4136   14.8823 N.ar    1  UNL1       -0.2743
     15 C          65.3039   92.1241   13.8691 C.ar    1  UNL1        0.0935
     16 S          66.4707   92.9941   14.2320 S.2     1  UNL1       -0.0692
     17 C          67.0647   93.5264   12.9616 C.ar    1  UNL1        0.0366
     18 C          66.2650   92.9855   11.8136 C.ar    1  UNL1        0.0061
     19 C          65.1767   92.1188   12.3745 C.ar    1  UNL1        0.0168
     20 C          64.1706   91.4017   11.5240 C.3     1  UNL1        0.1014
     21 N          63.0430   90.5127   11.9580 N.3     1  UNL1       -0.2637
     22 C          62.6431   90.1213   13.3498 C.3     1  UNL1        0.1396
     23 C          58.7814   89.1116    6.7498 C.3     1  UNL1        0.2042
     24 F          57.7635   88.2541    7.4415 F       1  UNL1       -0.2306
     25 C          60.1146   89.6590    6.3338 C.3     1  UNL1        0.0590
     26 C          60.1869   90.8013    5.3643 C.3     1  UNL1        0.0756
     27 N          58.9260   91.3961    4.8108 N.3     1  UNL1       -0.2688
     28 C          57.5929   90.8487    5.2268 C.3     1  UNL1        0.0756
     29 C          57.5206   89.7064    6.1963 C.3     1  UNL1        0.0590
     30 C          58.9982   92.5384    3.8412 C.3     1  UNL1        0.0993
     31 C          60.1020   92.5926    2.8270 C.ar    1  UNL1       -0.0018
     32 C          59.7996   92.9784    1.4093 C.ar    1  UNL1        0.0179
     33 C          60.9034   93.0325    0.3951 C.ar    1  UNL1        0.1000
     34 N          62.3096   92.7009    0.7985 N.ar    1  UNL1       -0.2296
     35 C          62.6119   92.3152    2.2162 C.ar    1  UNL1        0.1251
     36 N          64.0181   91.9836    2.6196 N.pl3   1  UNL1       -0.3426
     37 C          61.5082   92.2610    3.2304 C.ar    1  UNL1        0.0310
     38 H          64.7425   92.0191    1.9539 H       1  UNL1        0.1437
     39 H          64.2165   91.7304    3.5500 H       1  UNL1        0.1437
@<TRIPOS>BOND
     1     9    10    1
     2    10    11   ar
     3    11    12   ar
     4    12    13   ar
     5    13    14   ar
     6    14    15    1
     7    15    16   ar
     8    16    17   ar
     9    17    18   ar
    10    18    19   ar
    11    19    20    1
    12    20    21    1
    13    21     1    1
    14     1     2    1
    15     2     3    1
    16     3     4    1
    17     4     5   am
    18     5     6    2
    19     5    23    1
    20    23    24    1
    21    23    25    1
    22    25    26    1
    23    26    27    1
    24    27    30    1
    25    30    31    1
    26    31    32   ar
    27    32    33   ar
    28    33    34   ar
    29    34    35   ar
    30    35    36    1
    31    35    37   ar
    32    27    28    1
    33    28    29    1
    34     4     7    1
    35     7     8    1
    36    21    22    1
    37    14    10   ar
    38    19    15   ar
    39     8     1    1
    40    22    13    1
    41    29    23    1
    42    37    31   ar
    43    36    38    1
    44    36    39    1
@<TRIPOS>MOLECULE
*****
 39 44 0 0 0
SMALL
GASTEIGER

@<TRIPOS>ATOM
      1 C          60.2918   91.8701    3.8256 C.3     1  UNL1        0.0616
      2 C          61.3504   91.2536    4.6912 C.3     1  UNL1        0.0375
      3 C          60.9603   90.3665    5.8361 C.3     1  UNL1        0.0949
      4 N          59.5115   90.0959    6.1155 N.am    1  UNL1       -0.2773
      5 C          59.1215   89.2088    7.2604 C.2     1  UNL1        0.2553
      6 O          57.6728   88.9383    7.5397 O.2     1  UNL1       -0.2720
      7 C          58.4530   90.7125    5.2498 C.3     1  UNL1        0.0949
      8 C          58.8431   91.5996    4.1049 C.3     1  UNL1        0.0375
      9 C          61.2155   96.3922   -2.1061 C.3     1  UNL1        0.0742
     10 C          60.3422   95.6223   -1.1603 C.ar    1  UNL1        0.1477
     11 N          58.8444   95.5527   -1.2017 N.ar    1  UNL1       -0.1333
     12 N          58.3898   94.6742   -0.0741 N.ar    1  UNL1       -0.1319
     13 C          59.6066   94.2009    0.6643 C.ar    1  UNL1        0.1636
     14 N          60.8133   94.7869   -0.0070 N.ar    1  UNL1       -0.2743
     15 C          62.2595   94.6143    0.3520 C.ar    1  UNL1        0.0935
     16 S          63.3817   95.2596   -0.4058 S.2     1  UNL1       -0.0692
     17 C          64.6719   94.8572    0.2449 C.ar    1  UNL1        0.0366
     18 C          64.3472   93.9633    1.4048 C.ar    1  UNL1        0.0061
     19 C          62.8562   93.8131    1.4710 C.ar    1  UNL1        0.0168
     20 C          62.1541   92.9867    2.5073 C.3     1  UNL1        0.1014
     21 N          60.6819   92.7573    2.6806 N.3     1  UNL1       -0.2637
     22 C          59.5482   93.2977    1.8604 C.3     1  UNL1        0.1396
     23 C          60.1801   88.5923    8.1259 C.3     1  UNL1        0.2042
     24 F          60.0931   89.9534    8.7504 F       1  UNL1       -0.2306
     25 C          59.8993   87.4454    7.2008 C.3     1  UNL1        0.0590
     26 C          60.6471   86.1546    7.3582 C.3     1  UNL1        0.0756
     27 N          61.6755   86.0107    8.4406 N.3     1  UNL1       -0.2688
     28 C          61.9562   87.1577    9.3657 C.3     1  UNL1        0.0756
     29 C          61.2084   88.4485    9.2083 C.3     1  UNL1        0.0590
     30 C          62.4232   84.7199    8.5980 C.3     1  UNL1        0.0993
     31 C          62.9764   84.3321    9.9372 C.ar    1  UNL1       -0.0018
     32 C          64.1550   83.4082   10.0229 C.ar    1  UNL1        0.0179
     33 C          64.7081   83.0204   11.3622 C.ar    1  UNL1        0.1000
     34 N          64.0828   83.5565   12.6157 N.ar    1  UNL1       -0.2296
     35 C          62.9042   84.4804   12.5300 C.ar    1  UNL1        0.1251
     36 N          62.2788   85.0165   13.7836 N.pl3   1  UNL1       -0.3426
     37 C          62.3510   84.8682   11.1908 C.ar    1  UNL1        0.0310
     38 H          62.6419   84.7620   14.6626 H       1  UNL1        0.1437
     39 H          61.5053   85.6229   13.7274 H       1  UNL1        0.1437
@<TRIPOS>BOND
     1     9    10    1
     2    10    11   ar
     3    11    12   ar
     4    12    13   ar
     5    13    14   ar
     6    14    15    1
     7    15    16   ar
     8    16    17   ar
     9    17    18   ar
    10    18    19   ar
    11    19    20    1
    12    20    21    1
    13    21     1    1
    14     1     2    1
    15     2     3    1
    16     3     4    1
    17     4     5   am
    18     5     6    2
    19     5    23    1
    20    23    24    1
    21    23    25    1
    22    25    26    1
    23    26    27    1
    24    27    30    1
    25    30    31    1
    26    31    32   ar
    27    32    33   ar
    28    33    34   ar
    29    34    35   ar
    30    35    36    1
    31    35    37   ar
    32    27    28    1
    33    28    29    1
    34     4     7    1
    35     7     8    1
    36    21    22    1
    37    14    10   ar
    38    19    15   ar
    39     8     1    1
    40    22    13    1
    41    29    23    1
    42    37    31   ar
    43    36    38    1
    44    36    39    1
@<TRIPOS>MOLECULE
*****
 39 44 0 0 0
SMALL
GASTEIGER

@<TRIPOS>ATOM
      1 C          60.3571   91.9368    3.7318 C.3     1  UNL1        0.0616
      2 C          61.3627   91.1756    4.5437 C.3     1  UNL1        0.0375
      3 C          60.9037   90.2623    5.6415 C.3     1  UNL1        0.0949
      4 N          59.4389   90.1103    5.9274 N.am    1  UNL1       -0.2773
      5 C          58.9799   89.1971    7.0252 C.2     1  UNL1        0.2553
      6 O          57.5153   89.0451    7.3111 O.2     1  UNL1       -0.2720
      7 C          58.4334   90.8716    5.1154 C.3     1  UNL1        0.0949
      8 C          58.8924   91.7849    4.0176 C.3     1  UNL1        0.0375
      9 C          61.6355   96.6712   -1.9638 C.3     1  UNL1        0.0742
     10 C          60.7040   95.9182   -1.0609 C.ar    1  UNL1        0.1477
     11 N          59.2054   95.9552   -1.1115 N.ar    1  UNL1       -0.1333
     12 N          58.6827   95.0558   -0.0307 N.ar    1  UNL1       -0.1319
     13 C          59.8584   94.4630    0.6879 C.ar    1  UNL1        0.1636
     14 N          61.1077   94.9960    0.0512 N.ar    1  UNL1       -0.2743
     15 C          62.5357   94.7056    0.4067 C.ar    1  UNL1        0.0935
     16 S          63.7055   95.3078   -0.3137 S.2     1  UNL1       -0.0692
     17 C          64.9599   94.7848    0.3210 C.ar    1  UNL1        0.0366
     18 C          64.5655   93.8594    1.4337 C.ar    1  UNL1        0.0061
     19 C          63.0672   93.8105    1.4867 C.ar    1  UNL1        0.0168
     20 C          62.3020   92.9847    2.4778 C.3     1  UNL1        0.1014
     21 N          60.8161   92.8501    2.6339 N.3     1  UNL1       -0.2637
     22 C          59.7287   93.5081    1.8373 C.3     1  UNL1        0.1396
     23 C          59.9855   88.4358    7.8371 C.3     1  UNL1        0.2042
     24 F          59.6113   87.3851    6.8342 F       1  UNL1       -0.2306
     25 C          60.0105   89.7510    8.5580 C.3     1  UNL1        0.0590
     26 C          60.9111   89.9400    9.7426 C.3     1  UNL1        0.0756
     27 N          61.7868   88.8138   10.2063 N.3     1  UNL1       -0.2688
     28 C          61.7617   87.4986    9.4853 C.3     1  UNL1        0.0756
     29 C          60.8611   87.3097    8.3007 C.3     1  UNL1        0.0590
     30 C          62.6874   89.0027   11.3908 C.3     1  UNL1        0.0993
     31 C          63.0447   87.8306   12.2558 C.ar    1  UNL1       -0.0018
     32 C          63.8158   88.0424   13.5250 C.ar    1  UNL1        0.0179
     33 C          64.1731   86.8702   14.3899 C.ar    1  UNL1        0.1000
     34 N          63.7593   85.4862   13.9859 N.ar    1  UNL1       -0.2296
     35 C          62.9882   85.2744   12.7168 C.ar    1  UNL1        0.1251
     36 N          62.5745   83.8903   12.3127 N.pl3   1  UNL1       -0.3426
     37 C          62.6309   86.4465   11.8518 C.ar    1  UNL1        0.0310
     38 H          62.8090   83.1210   12.8805 H       1  UNL1        0.1437
     39 H          62.0684   83.7513   11.4798 H       1  UNL1        0.1437
@<TRIPOS>BOND
     1     9    10    1
     2    10    11   ar
     3    11    12   ar
     4    12    13   ar
     5    13    14   ar
     6    14    15    1
     7    15    16   ar
     8    16    17   ar
     9    17    18   ar
    10    18    19   ar
    11    19    20    1
    12    20    21    1
    13    21     1    1
    14     1     2    1
    15     2     3    1
    16     3     4    1
    17     4     5   am
    18     5     6    2
    19     5    23    1
    20    23    24    1
    21    23    25    1
    22    25    26    1
    23    26    27    1
    24    27    30    1
    25    30    31    1
    26    31    32   ar
    27    32    33   ar
    28    33    34   ar
    29    34    35   ar
    30    35    36    1
    31    35    37   ar
    32    27    28    1
    33    28    29    1
    34     4     7    1
    35     7     8    1
    36    21    22    1
    37    14    10   ar
    38    19    15   ar
    39     8     1    1
    40    22    13    1
    41    29    23    1
    42    37    31   ar
    43    36    38    1
    44    36    39    1
@<TRIPOS>MOLECULE
*****
 39 44 0 0 0
SMALL
GASTEIGER

@<TRIPOS>ATOM
      1 C          60.5320   91.9801    3.8303 C.3     1  UNL1        0.0616
      2 C          61.3632   90.8582    4.3782 C.3     1  UNL1        0.0375
      3 C          60.7786   89.9156    5.3880 C.3     1  UNL1        0.0949
      4 N          59.3628   90.0949    5.8499 N.am    1  UNL1       -0.2773
      5 C          58.7782   89.1523    6.8596 C.2     1  UNL1        0.2553
      6 O          57.3624   89.3316    7.3215 O.2     1  UNL1       -0.2720
      7 C          58.5316   91.2169    5.3019 C.3     1  UNL1        0.0949
      8 C          59.1161   92.1595    4.2921 C.3     1  UNL1        0.0375
      9 C          64.3683   96.1955   -1.0689 C.3     1  UNL1        0.0742
     10 C          64.2910   95.0812   -0.0677 C.ar    1  UNL1        0.1477
     11 N          65.4250   94.1946    0.3539 N.ar    1  UNL1       -0.1333
     12 N          64.9010   93.2233    1.3699 N.ar    1  UNL1       -0.1319
     13 C          63.4431   93.5096    1.5761 C.ar    1  UNL1        0.1636
     14 N          63.0661   94.6579    0.6876 N.ar    1  UNL1       -0.2743
     15 C          61.7283   95.3176    0.5289 C.ar    1  UNL1        0.0935
     16 S          61.4792   96.4677   -0.4013 S.2     1  UNL1       -0.0692
     17 C          60.0341   96.8528   -0.2856 C.ar    1  UNL1        0.0366
     18 C          59.3901   95.9407    0.7161 C.ar    1  UNL1        0.0061
     19 C          60.4371   94.9919    1.2195 C.ar    1  UNL1        0.0168
     20 C          60.1649   93.9262    2.2393 C.3     1  UNL1        0.1014
     21 N          61.1166   92.9228    2.8204 N.3     1  UNL1       -0.2637
     22 C          62.5755   92.7375    2.5253 C.3     1  UNL1        0.1396
     23 C          59.6095   88.0303    7.4076 C.3     1  UNL1        0.2042
     24 F          59.0645   87.3727    6.1745 F       1  UNL1       -0.2306
     25 C          59.8656   89.0777    8.4504 C.3     1  UNL1        0.0590
     26 C          60.7639   88.7747    9.6129 C.3     1  UNL1        0.0756
     27 N          61.4059   87.4243    9.7326 N.3     1  UNL1       -0.2688
     28 C          61.1496   86.3770    8.6898 C.3     1  UNL1        0.0756
     29 C          60.2514   86.6800    7.5273 C.3     1  UNL1        0.0590
     30 C          62.3041   87.1213   10.8951 C.3     1  UNL1        0.0993
     31 C          62.6310   85.6984   11.2393 C.ar    1  UNL1       -0.0018
     32 C          63.1943   84.7838   10.1923 C.ar    1  UNL1        0.0179
     33 C          63.5212   83.3610   10.5366 C.ar    1  UNL1        0.1000
     34 N          63.2848   82.8526   11.9279 N.ar    1  UNL1       -0.2296
     35 C          62.7214   83.7672   12.9749 C.ar    1  UNL1        0.1251
     36 N          62.4850   83.2589   14.3662 N.pl3   1  UNL1       -0.3426
     37 C          62.3946   85.1901   12.6306 C.ar    1  UNL1        0.0310
     38 H          62.6996   82.3250   14.5921 H       1  UNL1        0.1437
     39 H          62.1153   83.8591   15.0534 H       1  UNL1        0.1437
@<TRIPOS>BOND
     1     9    10    1
     2    10    11   ar
     3    11    12   ar
     4    12    13   ar
     5    13    14   ar
     6    14    15    1
     7    15    16   ar
     8    16    17   ar
     9    17    18   ar
    10    18    19   ar
    11    19    20    1
    12    20    21    1
    13    21     1    1
    14     1     2    1
    15     2     3    1
    16     3     4    1
    17     4     5   am
    18     5     6    2
    19     5    23    1
    20    23    24    1
    21    23    25    1
    22    25    26    1
    23    26    27    1
    24    27    30    1
    25    30    31    1
    26    31    32   ar
    27    32    33   ar
    28    33    34   ar
    29    34    35   ar
    30    35    36    1
    31    35    37   ar
    32    27    28    1
    33    28    29    1
    34     4     7    1
    35     7     8    1
    36    21    22    1
    37    14    10   ar
    38    19    15   ar
    39     8     1    1
    40    22    13    1
    41    29    23    1
    42    37    31   ar
    43    36    38    1
    44    36    39    1
@<TRIPOS>MOLECULE
*****
 39 44 0 0 0
SMALL
GASTEIGER

@<TRIPOS>ATOM
      1 C          63.4665   86.0950   14.1460 C.3     1  UNL1        0.0616
      2 C          64.1714   87.1637   13.3644 C.3     1  UNL1        0.0375
      3 C          64.3611   88.5271   13.9603 C.3     1  UNL1        0.0949
      4 N          63.8459   88.8218   15.3379 N.am    1  UNL1       -0.2773
      5 C          64.0356   90.1852   15.9338 C.2     1  UNL1        0.2553
      6 O          63.5204   90.4799   17.3114 O.2     1  UNL1       -0.2720
      7 C          63.1410   87.7531   16.1195 C.3     1  UNL1        0.0949
      8 C          62.9513   86.3897   15.5236 C.3     1  UNL1        0.0375
      9 C          63.0987   79.6143   10.3575 C.3     1  UNL1        0.0742
     10 C          63.5642   81.0333   10.4977 C.ar    1  UNL1        0.1477
     11 N          64.4046   81.7871    9.5101 N.ar    1  UNL1       -0.1333
     12 N          64.6309   83.1674   10.0521 N.ar    1  UNL1       -0.1319
     13 C          63.9303   83.2666   11.3747 C.ar    1  UNL1        0.1636
     14 N          63.2710   81.9477   11.6501 N.ar    1  UNL1       -0.2743
     15 C          62.4515   81.5420   12.8392 C.ar    1  UNL1        0.0935
     16 S          61.8417   80.1806   12.9968 S.2     1  UNL1       -0.0692
     17 C          61.1022   80.1523   14.3015 C.ar    1  UNL1        0.0366
     18 C          61.2549   81.4961   14.9502 C.ar    1  UNL1        0.0061
     19 C          62.0889   82.3550   14.0464 C.ar    1  UNL1        0.0168
     20 C          62.4561   83.7744   14.3628 C.3     1  UNL1        0.1014
     21 N          63.2768   84.7316   13.5501 N.3     1  UNL1       -0.2637
     22 C          63.9329   84.5055   12.2202 C.3     1  UNL1        0.1396
     23 C          64.7405   91.2539   15.1522 C.3     1  UNL1        0.2042
     24 F          65.4010   91.4292   16.4874 F       1  UNL1       -0.2306
     25 C          63.8351   90.7073   14.0884 C.3     1  UNL1        0.0590
     26 C          63.8640   91.2904   12.7067 C.3     1  UNL1        0.0756
     27 N          64.7984   92.4201   12.3887 N.3     1  UNL1       -0.2688
     28 C          65.7037   92.9666   13.4525 C.3     1  UNL1        0.0756
     29 C          65.6748   92.3835   14.8342 C.3     1  UNL1        0.0590
     30 C          64.8273   93.0032   11.0070 C.3     1  UNL1        0.0993
     31 C          66.1364   93.3807   10.3795 C.ar    1  UNL1       -0.0018
     32 C          67.2265   92.3590   10.2461 C.ar    1  UNL1        0.0179
     33 C          68.5356   92.7366    9.6187 C.ar    1  UNL1        0.1000
     34 N          68.7546   94.1358    9.1246 N.ar    1  UNL1       -0.2296
     35 C          67.6645   95.1575    9.2580 C.ar    1  UNL1        0.1251
     36 N          67.8835   96.5568    8.7640 N.pl3   1  UNL1       -0.3426
     37 C          66.3554   94.7800    9.8855 C.ar    1  UNL1        0.0310
     38 H          68.7427   96.8046    8.3521 H       1  UNL1        0.1437
     39 H          67.1680   97.2273    8.8515 H       1  UNL1        0.1437
@<TRIPOS>BOND
     1     9    10    1
     2    10    11   ar
     3    11    12   ar
     4    12    13   ar
     5    13    14   ar
     6    14    15    1
     7    15    16   ar
     8    16    17   ar
     9    17    18   ar
    10    18    19   ar
    11    19    20    1
    12    20    21    1
    13    21     1    1
    14     1     2    1
    15     2     3    1
    16     3     4    1
    17     4     5   am
    18     5     6    2
    19     5    23    1
    20    23    24    1
    21    23    25    1
    22    25    26    1
    23    26    27    1
    24    27    30    1
    25    30    31    1
    26    31    32   ar
    27    32    33   ar
    28    33    34   ar
    29    34    35   ar
    30    35    36    1
    31    35    37   ar
    32    27    28    1
    33    28    29    1
    34     4     7    1
    35     7     8    1
    36    21    22    1
    37    14    10   ar
    38    19    15   ar
    39     8     1    1
    40    22    13    1
    41    29    23    1
    42    37    31   ar
    43    36    38    1
    44    36    39    1
