@<TRIPOS>MOLECULE
*****
 29 31 0 0 0
SMALL
GASTEIGER

@<TRIPOS>ATOM
      1 N          63.2510   89.9930   12.2565 N.pl3   1  UNL1       -0.2872
      2 N          65.7010   93.6088   11.1731 N.3     1  UNL1       -0.2717
      3 C          64.8091   92.9727   10.1485 C.3     1  UNL1        0.0738
      4 C          63.9924   91.7675   10.5096 C.3     1  UNL1        0.0374
      5 C          64.0677   91.1983   11.8953 C.3     1  UNL1        0.0800
      6 C          64.9595   91.8344   12.9199 C.3     1  UNL1        0.0374
      7 C          65.7762   93.0397   12.5588 C.3     1  UNL1        0.0738
      8 C          66.5176   94.8141   10.8119 C.3     1  UNL1        0.0845
      9 C          66.3567   96.0886   11.5864 C.3     1  UNL1        0.0199
     10 C          67.2683   95.5642    8.4405 C.3     1  UNL1        0.0332
     11 C          67.4951   94.7449    9.6764 C.3     1  UNL1        0.1251
     12 O          68.6996   93.8564    9.7766 O.3     1  UNL1       -0.3831
     13 H          69.2234   93.9290    8.9635 H       1  UNL1        0.2104
     14 C          62.3282   89.3816   11.2443 C.ar    1  UNL1        0.0515
     15 C          62.6627   88.0551   10.6290 C.ar    1  UNL1        0.0148
     16 C          61.7398   87.4437    9.6169 C.ar    1  UNL1        0.0051
     17 C          60.4824   88.1588    9.2199 C.ar    1  UNL1        0.0715
     18 C          60.1479   89.4853    9.8352 C.ar    1  UNL1        0.0051
     19 C          61.0707   90.0967   10.8474 C.ar    1  UNL1        0.0148
     20 C          59.5595   87.5474    8.2077 C.3     1  UNL1        0.4186
     21 F          58.6367   86.9359    7.1956 F       1  UNL1       -0.1659
     22 F          59.2701   88.9090    7.6490 F       1  UNL1       -0.1659
     23 F          59.8490   86.1858    8.7664 F       1  UNL1       -0.1659
     24 C          63.3572   89.3991   13.6297 C.ar    1  UNL1        0.0710
     25 C          64.0770   88.0985   13.8308 C.ar    1  UNL1        0.0180
     26 C          64.1832   87.5046   15.2042 C.ar    1  UNL1        0.0220
     27 C          63.5697   88.2113   16.3764 C.ar    1  UNL1        0.0990
     28 N          62.8499   89.5119   16.1753 N.ar    1  UNL1       -0.2410
     29 C          62.7437   90.1058   14.8020 C.ar    1  UNL1        0.1136
@<TRIPOS>BOND
     1    10    11    1
     2    11    12    1
     3    11     8    1
     4     8     9    1
     5     8     2    1
     6     2     3    1
     7     3     4    1
     8     4     5    1
     9     5     1    1
    10     1    14    1
    11    14    15   ar
    12    15    16   ar
    13    16    17   ar
    14    17    20    1
    15    20    21    1
    16    20    22    1
    17    20    23    1
    18    17    18   ar
    19    18    19   ar
    20     1    24    1
    21    24    25   ar
    22    25    26   ar
    23    26    27   ar
    24    27    28   ar
    25    28    29   ar
    26     5     6    1
    27     6     7    1
    28     7     2    1
    29    19    14   ar
    30    29    24   ar
    31    12    13    1
@<TRIPOS>MOLECULE
*****
 29 31 0 0 0
SMALL
GASTEIGER

@<TRIPOS>ATOM
      1 N          62.3465   86.3917   11.6481 N.pl3   1  UNL1       -0.2872
      2 N          64.3416   89.7836   13.8309 N.3     1  UNL1       -0.2717
      3 C          63.5535   90.0547   12.5838 C.3     1  UNL1        0.0738
      4 C          62.8884   88.9241   11.8562 C.3     1  UNL1        0.0374
      5 C          63.0115   87.5223   12.3757 C.3     1  UNL1        0.0800
      6 C          63.7997   87.2512   13.6227 C.3     1  UNL1        0.0374
      7 C          64.4648   88.3818   14.3503 C.3     1  UNL1        0.0738
      8 C          65.0067   90.9142   14.5585 C.3     1  UNL1        0.0845
      9 C          66.2353   91.5557   13.9849 C.3     1  UNL1        0.0199
     10 C          63.4180   90.5855   16.5877 C.3     1  UNL1        0.0332
     11 C          64.4431   91.4034   15.8596 C.3     1  UNL1        0.1251
     12 O          64.9047   92.7106   16.4327 O.3     1  UNL1       -0.3831
     13 H          64.4449   92.8766   17.2706 H       1  UNL1        0.2104
     14 C          62.4872   84.9873   12.1557 C.ar    1  UNL1        0.0515
     15 C          62.2729   84.6905   13.6104 C.ar    1  UNL1        0.0148
     16 C          62.4136   83.2861   14.1180 C.ar    1  UNL1        0.0051
     17 C          62.7686   82.1783   13.1709 C.ar    1  UNL1        0.0715
     18 C          62.9828   82.4750   11.7163 C.ar    1  UNL1        0.0051
     19 C          62.8421   83.8795   11.2086 C.ar    1  UNL1        0.0148
     20 C          62.9093   80.7738   13.6786 C.3     1  UNL1        0.4186
     21 F          63.0499   79.3694   14.1863 F       1  UNL1       -0.1659
     22 F          64.3976   80.8636   13.5148 F       1  UNL1       -0.1659
     23 F          61.4210   80.6840   13.8424 F       1  UNL1       -0.1659
     24 C          61.5407   86.6655   10.4129 C.ar    1  UNL1        0.0710
     25 C          61.9508   86.0642    9.1013 C.ar    1  UNL1        0.0180
     26 C          61.1450   86.3380    7.8661 C.ar    1  UNL1        0.0220
     27 C          59.9292   87.2132    7.9425 C.ar    1  UNL1        0.0990
     28 N          59.5191   87.8146    9.2540 N.ar    1  UNL1       -0.2410
     29 C          60.3249   87.5408   10.4892 C.ar    1  UNL1        0.1136
@<TRIPOS>BOND
     1    10    11    1
     2    11    12    1
     3    11     8    1
     4     8     9    1
     5     8     2    1
     6     2     3    1
     7     3     4    1
     8     4     5    1
     9     5     1    1
    10     1    14    1
    11    14    15   ar
    12    15    16   ar
    13    16    17   ar
    14    17    20    1
    15    20    21    1
    16    20    22    1
    17    20    23    1
    18    17    18   ar
    19    18    19   ar
    20     1    24    1
    21    24    25   ar
    22    25    26   ar
    23    26    27   ar
    24    27    28   ar
    25    28    29   ar
    26     5     6    1
    27     6     7    1
    28     7     2    1
    29    19    14   ar
    30    29    24   ar
    31    12    13    1
@<TRIPOS>MOLECULE
*****
 29 31 0 0 0
SMALL
GASTEIGER

@<TRIPOS>ATOM
      1 N          62.2992   86.4948   11.5373 N.pl3   1  UNL1       -0.2872
      2 N          64.2224   89.9866   13.6251 N.3     1  UNL1       -0.2717
      3 C          64.3543   88.6059   14.1962 C.3     1  UNL1        0.0738
      4 C          63.7133   87.4420   13.5002 C.3     1  UNL1        0.0374
      5 C          62.9403   87.6587   12.2332 C.3     1  UNL1        0.0800
      6 C          62.8083   89.0394   11.6621 C.3     1  UNL1        0.0374
      7 C          63.4494   90.2034   12.3580 C.3     1  UNL1        0.0738
      8 C          64.8635   91.1505   14.3210 C.3     1  UNL1        0.0845
      9 C          64.5450   91.4324   15.7594 C.3     1  UNL1        0.0199
     10 C          67.3010   91.8180   13.7185 C.3     1  UNL1        0.0332
     11 C          65.8230   92.0325   13.5785 C.3     1  UNL1        0.1251
     12 O          65.3045   93.1291   12.6959 O.3     1  UNL1       -0.3831
     13 H          66.0508   93.6004   12.2936 H       1  UNL1        0.2104
     14 C          62.4830   85.1062   12.0739 C.ar    1  UNL1        0.0515
     15 C          62.8631   83.9887   11.1482 C.ar    1  UNL1        0.0148
     16 C          63.0470   82.6001   11.6848 C.ar    1  UNL1        0.0051
     17 C          62.8507   82.3289   13.1469 C.ar    1  UNL1        0.0715
     18 C          62.4706   83.4463   14.0725 C.ar    1  UNL1        0.0051
     19 C          62.2867   84.8350   13.5360 C.ar    1  UNL1        0.0148
     20 C          63.0345   80.9402   13.6835 C.3     1  UNL1        0.4186
     21 F          63.2183   79.5516   14.2200 F       1  UNL1       -0.1659
     22 F          64.4991   81.0120   13.3677 F       1  UNL1       -0.1659
     23 F          61.5699   80.8683   13.9992 F       1  UNL1       -0.1659
     24 C          61.4743   86.7195   10.3048 C.ar    1  UNL1        0.0710
     25 C          61.8743   86.0809    9.0079 C.ar    1  UNL1        0.0180
     26 C          61.0493   86.3056    7.7754 C.ar    1  UNL1        0.0220
     27 C          59.8244   87.1689    7.8399 C.ar    1  UNL1        0.0990
     28 N          59.4244   87.8075    9.1368 N.ar    1  UNL1       -0.2410
     29 C          60.2493   87.5828   10.3693 C.ar    1  UNL1        0.1136
@<TRIPOS>BOND
     1    10    11    1
     2    11    12    1
     3    11     8    1
     4     8     9    1
     5     8     2    1
     6     2     3    1
     7     3     4    1
     8     4     5    1
     9     5     1    1
    10     1    14    1
    11    14    15   ar
    12    15    16   ar
    13    16    17   ar
    14    17    20    1
    15    20    21    1
    16    20    22    1
    17    20    23    1
    18    17    18   ar
    19    18    19   ar
    20     1    24    1
    21    24    25   ar
    22    25    26   ar
    23    26    27   ar
    24    27    28   ar
    25    28    29   ar
    26     5     6    1
    27     6     7    1
    28     7     2    1
    29    19    14   ar
    30    29    24   ar
    31    12    13    1
@<TRIPOS>MOLECULE
*****
 29 31 0 0 0
SMALL
GASTEIGER

@<TRIPOS>ATOM
      1 N          62.8412   88.2824   12.0181 N.pl3   1  UNL1       -0.2872
      2 N          65.2525   91.6123   13.8478 N.3     1  UNL1       -0.2717
      3 C          65.0376   90.3369   14.6075 C.3     1  UNL1        0.0738
      4 C          64.2339   89.2269   13.9976 C.3     1  UNL1        0.0374
      5 C          63.6450   89.3924   12.6280 C.3     1  UNL1        0.0800
      6 C          63.8598   90.6678   11.8684 C.3     1  UNL1        0.0374
      7 C          64.6636   91.7777   12.4783 C.3     1  UNL1        0.0738
      8 C          66.0562   92.7222   14.4577 C.3     1  UNL1        0.0845
      9 C          66.4781   93.8916   13.6183 C.3     1  UNL1        0.0199
     10 C          67.8620   92.3974   16.2972 C.3     1  UNL1        0.0332
     11 C          66.4381   92.6629   15.9070 C.3     1  UNL1        0.1251
     12 O          65.3962   92.8690   16.9663 O.3     1  UNL1       -0.3831
     13 H          65.8072   92.7990   17.8421 H       1  UNL1        0.2104
     14 C          63.0704   86.8648   12.4515 C.ar    1  UNL1        0.0515
     15 C          63.8975   86.5772   13.6694 C.ar    1  UNL1        0.0148
     16 C          64.1267   85.1596   14.1027 C.ar    1  UNL1        0.0051
     17 C          63.5287   84.0295   13.3182 C.ar    1  UNL1        0.0715
     18 C          62.7016   84.3171   12.1004 C.ar    1  UNL1        0.0051
     19 C          62.4724   85.7348   11.6670 C.ar    1  UNL1        0.0148
     20 C          63.7579   82.6119   13.7516 C.3     1  UNL1        0.4186
     21 F          63.9871   81.1943   14.1849 F       1  UNL1       -0.1659
     22 F          62.9241   82.8511   14.9753 F       1  UNL1       -0.1659
     23 F          64.5917   82.3726   12.5279 F       1  UNL1       -0.1659
     24 C          61.8083   88.5901   10.9749 C.ar    1  UNL1        0.0710
     25 C          61.8000   87.8314    9.6809 C.ar    1  UNL1        0.0180
     26 C          60.7670   88.1391    8.6377 C.ar    1  UNL1        0.0220
     27 C          59.7424   89.2054    8.8884 C.ar    1  UNL1        0.0990
     28 N          59.7506   89.9641   10.1824 N.ar    1  UNL1       -0.2410
     29 C          60.7835   89.6564   11.2256 C.ar    1  UNL1        0.1136
@<TRIPOS>BOND
     1    10    11    1
     2    11    12    1
     3    11     8    1
     4     8     9    1
     5     8     2    1
     6     2     3    1
     7     3     4    1
     8     4     5    1
     9     5     1    1
    10     1    14    1
    11    14    15   ar
    12    15    16   ar
    13    16    17   ar
    14    17    20    1
    15    20    21    1
    16    20    22    1
    17    20    23    1
    18    17    18   ar
    19    18    19   ar
    20     1    24    1
    21    24    25   ar
    22    25    26   ar
    23    26    27   ar
    24    27    28   ar
    25    28    29   ar
    26     5     6    1
    27     6     7    1
    28     7     2    1
    29    19    14   ar
    30    29    24   ar
    31    12    13    1
@<TRIPOS>MOLECULE
*****
 29 31 0 0 0
SMALL
GASTEIGER

@<TRIPOS>ATOM
      1 N          63.3842   90.0654   12.4770 N.pl3   1  UNL1       -0.2872
      2 N          60.7479   88.7713    9.0674 N.3     1  UNL1       -0.2717
      3 C          61.8874   87.9004    9.5068 C.3     1  UNL1        0.0738
      4 C          62.7661   88.3318   10.6433 C.3     1  UNL1        0.0374
      5 C          62.5054   89.6340   11.3405 C.3     1  UNL1        0.0800
      6 C          61.3660   90.5049   10.9011 C.3     1  UNL1        0.0374
      7 C          60.4872   90.0736    9.7645 C.3     1  UNL1        0.0738
      8 C          59.8692   88.3399    7.9308 C.3     1  UNL1        0.0845
      9 C          59.3683   89.3524    6.9440 C.3     1  UNL1        0.0199
     10 C          60.5515   85.8658    7.5272 C.3     1  UNL1        0.0332
     11 C          59.4913   86.8961    7.7812 C.3     1  UNL1        0.1251
     12 O          58.0531   86.4825    7.8854 O.3     1  UNL1       -0.3831
     13 H          57.9833   85.5224    7.7658 H       1  UNL1        0.2104
     14 C          63.3552   89.3135   13.7746 C.ar    1  UNL1        0.0515
     15 C          62.7055   89.9242   14.9809 C.ar    1  UNL1        0.0148
     16 C          62.6766   89.1723   16.2785 C.ar    1  UNL1        0.0051
     17 C          63.2973   87.8098   16.3699 C.ar    1  UNL1        0.0715
     18 C          63.9469   87.1992   15.1637 C.ar    1  UNL1        0.0051
     19 C          63.9759   87.9510   13.8660 C.ar    1  UNL1        0.0148
     20 C          63.2683   87.0579   17.6676 C.3     1  UNL1        0.4186
     21 F          63.2393   86.3062   18.9652 F       1  UNL1       -0.1659
     22 F          63.4230   85.7655   16.9223 F       1  UNL1       -0.1659
     23 F          63.1135   88.3504   18.4129 F       1  UNL1       -0.1659
     24 C          64.2919   91.2486   12.3159 C.ar    1  UNL1        0.0710
     25 C          64.4810   91.8703   10.9640 C.ar    1  UNL1        0.0180
     26 C          65.3888   93.0536   10.8030 C.ar    1  UNL1        0.0220
     27 C          66.1074   93.6151   11.9938 C.ar    1  UNL1        0.0990
     28 N          65.9183   92.9934   13.3458 N.ar    1  UNL1       -0.2410
     29 C          65.0105   91.8102   13.5069 C.ar    1  UNL1        0.1136
@<TRIPOS>BOND
     1    10    11    1
     2    11    12    1
     3    11     8    1
     4     8     9    1
     5     8     2    1
     6     2     3    1
     7     3     4    1
     8     4     5    1
     9     5     1    1
    10     1    14    1
    11    14    15   ar
    12    15    16   ar
    13    16    17   ar
    14    17    20    1
    15    20    21    1
    16    20    22    1
    17    20    23    1
    18    17    18   ar
    19    18    19   ar
    20     1    24    1
    21    24    25   ar
    22    25    26   ar
    23    26    27   ar
    24    27    28   ar
    25    28    29   ar
    26     5     6    1
    27     6     7    1
    28     7     2    1
    29    19    14   ar
    30    29    24   ar
    31    12    13    1
@<TRIPOS>MOLECULE
*****
 29 31 0 0 0
SMALL
GASTEIGER

@<TRIPOS>ATOM
      1 N          63.0834   88.9855   12.4389 N.pl3   1  UNL1       -0.2872
      2 N          63.7033   84.6506   13.4752 N.3     1  UNL1       -0.2717
      3 C          62.9177   85.0247   12.2534 C.3     1  UNL1        0.0738
      4 C          62.7111   86.4697   11.9080 C.3     1  UNL1        0.0374
      5 C          63.2900   87.5406   12.7843 C.3     1  UNL1        0.0800
      6 C          64.0757   87.1664   14.0061 C.3     1  UNL1        0.0374
      7 C          64.2823   85.7214   14.3515 C.3     1  UNL1        0.0738
      8 C          63.9100   83.2056   13.8206 C.3     1  UNL1        0.0845
      9 C          63.9961   82.7828   15.2571 C.3     1  UNL1        0.0199
     10 C          63.0643   81.0380   12.6647 C.3     1  UNL1        0.0332
     11 C          64.0306   82.1835   12.7294 C.3     1  UNL1        0.1251
     12 O          65.1174   82.3068   11.7029 O.3     1  UNL1       -0.3831
     13 H          65.0540   81.5703   11.0748 H       1  UNL1        0.2104
     14 C          64.0028   90.0296   12.9996 C.ar    1  UNL1        0.0515
     15 C          64.3217   91.2568   12.1980 C.ar    1  UNL1        0.0148
     16 C          65.2412   92.3009   12.7586 C.ar    1  UNL1        0.0051
     17 C          65.8418   92.1179   14.1209 C.ar    1  UNL1        0.0715
     18 C          65.5229   90.8909   14.9225 C.ar    1  UNL1        0.0051
     19 C          64.6034   89.8467   14.3619 C.ar    1  UNL1        0.0148
     20 C          66.7613   93.1621   14.6816 C.3     1  UNL1        0.4186
     21 F          67.6807   94.2062   15.2422 F       1  UNL1       -0.1659
     22 F          67.1563   92.2231   15.7826 F       1  UNL1       -0.1659
     23 F          66.3663   94.1010   13.5806 F       1  UNL1       -0.1659
     24 C          61.9572   89.3864   11.5328 C.ar    1  UNL1        0.0710
     25 C          62.0696   89.1647   10.0535 C.ar    1  UNL1        0.0180
     26 C          60.9434   89.5656    9.1474 C.ar    1  UNL1        0.0220
     27 C          59.7049   90.1882    9.7205 C.ar    1  UNL1        0.0990
     28 N          59.5926   90.4100   11.1998 N.ar    1  UNL1       -0.2410
     29 C          60.7187   90.0091   12.1059 C.ar    1  UNL1        0.1136
@<TRIPOS>BOND
     1    10    11    1
     2    11    12    1
     3    11     8    1
     4     8     9    1
     5     8     2    1
     6     2     3    1
     7     3     4    1
     8     4     5    1
     9     5     1    1
    10     1    14    1
    11    14    15   ar
    12    15    16   ar
    13    16    17   ar
    14    17    20    1
    15    20    21    1
    16    20    22    1
    17    20    23    1
    18    17    18   ar
    19    18    19   ar
    20     1    24    1
    21    24    25   ar
    22    25    26   ar
    23    26    27   ar
    24    27    28   ar
    25    28    29   ar
    26     5     6    1
    27     6     7    1
    28     7     2    1
    29    19    14   ar
    30    29    24   ar
    31    12    13    1
@<TRIPOS>MOLECULE
*****
 29 31 0 0 0
SMALL
GASTEIGER

@<TRIPOS>ATOM
      1 N          62.8918   86.3759   12.4371 N.pl3   1  UNL1       -0.2872
      2 N          64.6903   90.0014   14.4048 N.3     1  UNL1       -0.2717
      3 C          64.8152   88.6555   15.0551 C.3     1  UNL1        0.0738
      4 C          64.2157   87.4471   14.3992 C.3     1  UNL1        0.0374
      5 C          63.4913   87.5844   13.0930 C.3     1  UNL1        0.0800
      6 C          63.3664   88.9303   12.4426 C.3     1  UNL1        0.0374
      7 C          63.9659   90.1388   13.0985 C.3     1  UNL1        0.0738
      8 C          65.2897   91.2099   15.0607 C.3     1  UNL1        0.0845
      9 C          64.5983   91.8505   16.2275 C.3     1  UNL1        0.0199
     10 C          66.5676   92.8067   13.4584 C.3     1  UNL1        0.0332
     11 C          66.5806   91.7777   14.5498 C.3     1  UNL1        0.1251
     12 O          67.8847   91.3166   15.1302 O.3     1  UNL1       -0.3831
     13 H          68.6156   91.7793   14.6913 H       1  UNL1        0.2104
     14 C          62.0377   86.5325   11.2140 C.ar    1  UNL1        0.0515
     15 C          62.4217   85.8440    9.9379 C.ar    1  UNL1        0.0148
     16 C          61.5676   86.0005    8.7148 C.ar    1  UNL1        0.0051
     17 C          60.3294   86.8457    8.7678 C.ar    1  UNL1        0.0715
     18 C          59.9454   87.5342   10.0439 C.ar    1  UNL1        0.0051
     19 C          60.7996   87.3776   11.2671 C.ar    1  UNL1        0.0148
     20 C          59.4753   87.0022    7.5447 C.3     1  UNL1        0.4186
     21 F          58.6212   87.1587    6.3216 F       1  UNL1       -0.1659
     22 F          59.1960   88.4268    7.9220 F       1  UNL1       -0.1659
     23 F          59.7546   85.5776    7.1674 F       1  UNL1       -0.1659
     24 C          63.1465   85.0109   13.0043 C.ar    1  UNL1        0.0710
     25 C          64.1069   84.0824   12.3220 C.ar    1  UNL1        0.0180
     26 C          64.3615   82.7173   12.8892 C.ar    1  UNL1        0.0220
     27 C          63.6557   82.2807   14.1387 C.ar    1  UNL1        0.0990
     28 N          62.6953   83.2092   14.8210 N.ar    1  UNL1       -0.2410
     29 C          62.4407   84.5742   14.2538 C.ar    1  UNL1        0.1136
@<TRIPOS>BOND
     1    10    11    1
     2    11    12    1
     3    11     8    1
     4     8     9    1
     5     8     2    1
     6     2     3    1
     7     3     4    1
     8     4     5    1
     9     5     1    1
    10     1    14    1
    11    14    15   ar
    12    15    16   ar
    13    16    17   ar
    14    17    20    1
    15    20    21    1
    16    20    22    1
    17    20    23    1
    18    17    18   ar
    19    18    19   ar
    20     1    24    1
    21    24    25   ar
    22    25    26   ar
    23    26    27   ar
    24    27    28   ar
    25    28    29   ar
    26     5     6    1
    27     6     7    1
    28     7     2    1
    29    19    14   ar
    30    29    24   ar
    31    12    13    1
@<TRIPOS>MOLECULE
*****
 29 31 0 0 0
SMALL
GASTEIGER

@<TRIPOS>ATOM
      1 N          63.0193   87.8698   12.2874 N.pl3   1  UNL1       -0.2872
      2 N          65.2101   91.4588   13.8906 N.3     1  UNL1       -0.2717
      3 C          64.5734   91.5132   12.5335 C.3     1  UNL1        0.0738
      4 C          63.8431   90.3169   11.9991 C.3     1  UNL1        0.0374
      5 C          63.7496   89.0661   12.8218 C.3     1  UNL1        0.0800
      6 C          64.3862   89.0117   14.1789 C.3     1  UNL1        0.0374
      7 C          65.1165   90.2080   14.7132 C.3     1  UNL1        0.0738
      8 C          65.9403   92.6551   14.4249 C.3     1  UNL1        0.0845
      9 C          66.3457   93.7622   13.4977 C.3     1  UNL1        0.0199
     10 C          67.6904   92.6516   16.3451 C.3     1  UNL1        0.0332
     11 C          66.2652   92.7443   15.8866 C.3     1  UNL1        0.1251
     12 O          65.1649   92.9261   16.8898 O.3     1  UNL1       -0.3831
     13 H          65.5438   92.9641   17.7819 H       1  UNL1        0.2104
     14 C          62.0917   88.0180   11.1181 C.ar    1  UNL1        0.0515
     15 C          61.0183   89.0656   11.1403 C.ar    1  UNL1        0.0148
     16 C          60.0906   89.2138    9.9709 C.ar    1  UNL1        0.0051
     17 C          60.2363   88.3144    8.7793 C.ar    1  UNL1        0.0715
     18 C          61.3097   87.2669    8.7571 C.ar    1  UNL1        0.0051
     19 C          62.2374   87.1186    9.9265 C.ar    1  UNL1        0.0148
     20 C          59.3086   88.4627    7.6099 C.3     1  UNL1        0.4186
     21 F          58.3810   88.6109    6.4405 F       1  UNL1       -0.1659
     22 F          58.6274   87.1808    7.9877 F       1  UNL1       -0.1659
     23 F          59.9898   89.7445    7.2320 F       1  UNL1       -0.1659
     24 C          63.2167   86.5253   12.9225 C.ar    1  UNL1        0.0710
     25 C          64.1254   86.3815   14.1072 C.ar    1  UNL1        0.0180
     26 C          64.3227   85.0369   14.7422 C.ar    1  UNL1        0.0220
     27 C          63.6114   83.8362   14.1925 C.ar    1  UNL1        0.0990
     28 N          62.7028   83.9799   13.0077 N.ar    1  UNL1       -0.2410
     29 C          62.5054   85.3245   12.3727 C.ar    1  UNL1        0.1136
@<TRIPOS>BOND
     1    10    11    1
     2    11    12    1
     3    11     8    1
     4     8     9    1
     5     8     2    1
     6     2     3    1
     7     3     4    1
     8     4     5    1
     9     5     1    1
    10     1    14    1
    11    14    15   ar
    12    15    16   ar
    13    16    17   ar
    14    17    20    1
    15    20    21    1
    16    20    22    1
    17    20    23    1
    18    17    18   ar
    19    18    19   ar
    20     1    24    1
    21    24    25   ar
    22    25    26   ar
    23    26    27   ar
    24    27    28   ar
    25    28    29   ar
    26     5     6    1
    27     6     7    1
    28     7     2    1
    29    19    14   ar
    30    29    24   ar
    31    12    13    1
@<TRIPOS>MOLECULE
*****
 29 31 0 0 0
SMALL
GASTEIGER

@<TRIPOS>ATOM
      1 N          63.5138   89.6675   12.6728 N.pl3   1  UNL1       -0.2872
      2 N          61.4576   87.2614    9.4739 N.3     1  UNL1       -0.2717
      3 C          62.1790   86.5647   10.5893 C.3     1  UNL1        0.0738
      4 C          62.8644   87.3667   11.6556 C.3     1  UNL1        0.0374
      5 C          62.8284   88.8655   11.6065 C.3     1  UNL1        0.0800
      6 C          62.1070   89.5622   10.4912 C.3     1  UNL1        0.0374
      7 C          61.4216   88.7602    9.4249 C.3     1  UNL1        0.0738
      8 C          60.7722   86.4594    8.4076 C.3     1  UNL1        0.0845
      9 C          59.3079   86.6543    8.1472 C.3     1  UNL1        0.0199
     10 C          60.8815   84.7088    6.4910 C.3     1  UNL1        0.0332
     11 C          61.5510   85.4625    7.6018 C.3     1  UNL1        0.1251
     12 O          62.9995   85.2192    7.9066 O.3     1  UNL1       -0.3831
     13 H          63.3502   84.5506    7.2977 H       1  UNL1        0.2104
     14 C          64.2517   90.9220   12.3100 C.ar    1  UNL1        0.0515
     15 C          64.0901   91.5185   10.9432 C.ar    1  UNL1        0.0148
     16 C          64.8279   92.7730   10.5804 C.ar    1  UNL1        0.0051
     17 C          65.7274   93.4311   11.5843 C.ar    1  UNL1        0.0715
     18 C          65.8890   92.8347   12.9511 C.ar    1  UNL1        0.0051
     19 C          65.1511   91.5801   13.3139 C.ar    1  UNL1        0.0148
     20 C          66.4653   94.6857   11.2214 C.3     1  UNL1        0.4186
     21 F          67.2032   95.9402   10.8585 F       1  UNL1       -0.1659
     22 F          66.2002   95.2377   12.5907 F       1  UNL1       -0.1659
     23 F          66.7304   94.1337    9.8521 F       1  UNL1       -0.1659
     24 C          63.4613   89.2150   14.1019 C.ar    1  UNL1        0.0710
     25 C          63.0203   90.1666   15.1743 C.ar    1  UNL1        0.0180
     26 C          62.9679   89.7140   16.6035 C.ar    1  UNL1        0.0220
     27 C          63.3564   88.3099   16.9603 C.ar    1  UNL1        0.0990
     28 N          63.7974   87.3582   15.8879 N.ar    1  UNL1       -0.2410
     29 C          63.8499   87.8107   14.4588 C.ar    1  UNL1        0.1136
@<TRIPOS>BOND
     1    10    11    1
     2    11    12    1
     3    11     8    1
     4     8     9    1
     5     8     2    1
     6     2     3    1
     7     3     4    1
     8     4     5    1
     9     5     1    1
    10     1    14    1
    11    14    15   ar
    12    15    16   ar
    13    16    17   ar
    14    17    20    1
    15    20    21    1
    16    20    22    1
    17    20    23    1
    18    17    18   ar
    19    18    19   ar
    20     1    24    1
    21    24    25   ar
    22    25    26   ar
    23    26    27   ar
    24    27    28   ar
    25    28    29   ar
    26     5     6    1
    27     6     7    1
    28     7     2    1
    29    19    14   ar
    30    29    24   ar
    31    12    13    1
