@<TRIPOS>MOLECULE
*****
 39 43 0 0 0
SMALL
GASTEIGER

@<TRIPOS>ATOM
      1 C          63.9595   86.4413   15.5721 C.ar    1  UNL1        0.0611
      2 C          63.2417   86.0190   16.8197 C.ar    1  UNL1        0.1037
      3 N          62.7977   87.2572   17.5406 N.ar    1  UNL1       -0.2269
      4 C          63.2409   88.4447   16.7385 C.ar    1  UNL1        0.1407
      5 N          63.0835   89.9201   16.9588 N.ar    1  UNL1       -0.3374
      6 C          63.6441   90.8911   15.9625 C.ar    1  UNL1        0.0735
      7 C          64.3622   90.3869   14.7459 C.ar    1  UNL1        0.0186
      8 C          64.5196   88.9116   14.5256 C.ar    1  UNL1        0.0047
      9 C          63.9590   87.9405   15.5219 C.ar    1  UNL1        0.0386
     10 H          62.6122   90.2510   17.7573 H       1  UNL1        0.1674
     11 C          64.9228   91.3580   13.7496 C.ar    1  UNL1        0.0207
     12 C          64.3953   91.3806   12.3456 C.ar    1  UNL1        0.0045
     13 C          64.9560   92.3518   11.3493 C.ar    1  UNL1        0.0343
     14 C          66.0441   93.3003   11.7570 C.ar    1  UNL1        0.1317
     15 N          66.5716   93.2777   13.1611 N.ar    1  UNL1       -0.2292
     16 C          66.0109   92.3066   14.1573 C.ar    1  UNL1        0.1003
     17 N          66.6047   94.2715   10.7608 N.pl3   1  UNL1       -0.2932
     18 C          66.4876   95.7656   10.8238 C.3     1  UNL1        0.0922
     19 C          67.1914   96.3365    9.6285 C.3     1  UNL1        0.0232
     20 C          67.7435   95.1952    8.8268 C.3     1  UNL1        0.0232
     21 C          67.3809   93.9190    9.5266 C.3     1  UNL1        0.0922
     22 C          64.5705   85.5253   14.5535 C.2     1  UNL1        0.2015
     23 O          65.9991   85.0911   14.6964 O.2     1  UNL1       -0.2864
     24 C          62.4139   85.5421   11.2219 C.ar    1  UNL1        0.0920
     25 C          62.1174   84.0796   11.0689 C.ar    1  UNL1        0.0204
     26 C          62.6385   83.0991   12.0773 C.ar    1  UNL1        0.0312
     27 C          63.4562   83.5809   13.2389 C.ar    1  UNL1        0.1454
     28 F          63.9774   82.6004   14.2473 F       1  UNL1       -0.2040
     29 C          63.7528   85.0434   13.3919 C.ar    1  UNL1        0.0951
     30 C          63.2316   86.0239   12.3835 C.ar    1  UNL1        0.1598
     31 F          63.5282   87.4863   12.5366 F       1  UNL1       -0.2026
     32 N          61.8928   86.5226   10.2135 N.pl3   1  UNL1       -0.2166
     33 H          61.7648   87.4659   10.4646 H       1  UNL1        0.1734
     34 S          61.5666   86.0658    8.8225 S.O2    1  UNL1        0.0540
     35 O          63.0192   85.7868    8.5734 O.2     1  UNL1       -0.1545
     36 O          60.1140   86.3448    9.0715 O.2     1  UNL1       -0.1545
     37 C          61.2403   85.6091    7.4315 C.3     1  UNL1        0.1724
     38 C          61.8111   84.1408    5.3654 C.3     1  UNL1        0.0019
     39 C          62.2094   84.7466    6.6785 C.3     1  UNL1        0.0273
@<TRIPOS>BOND
     1    38    39    1
     2    39    37    1
     3    37    34    1
     4    34    35    2
     5    34    36    2
     6    34    32    1
     7    32    24    1
     8    24    25   ar
     9    25    26   ar
    10    26    27   ar
    11    27    28    1
    12    27    29   ar
    13    29    22    1
    14    22    23    2
    15    22     1    1
    16     1     2   ar
    17     2     3   ar
    18     3     4   ar
    19     4     5   ar
    20     5     6   ar
    21     6     7   ar
    22     7    11    1
    23    11    12   ar
    24    12    13   ar
    25    13    14   ar
    26    14    17    1
    27    17    18    1
    28    18    19    1
    29    19    20    1
    30    20    21    1
    31    14    15   ar
    32    15    16   ar
    33     7     8   ar
    34     8     9   ar
    35    29    30   ar
    36    30    31    1
    37    30    24   ar
    38     9     1   ar
    39     9     4    1
    40    16    11   ar
    41    21    17    1
    42    32    33    1
    43     5    10    1
@<TRIPOS>MOLECULE
*****
 39 43 0 0 0
SMALL
GASTEIGER

@<TRIPOS>ATOM
      1 C          64.0106   86.4219   15.6468 C.ar    1  UNL1        0.0611
      2 C          63.2595   86.0349   16.8862 C.ar    1  UNL1        0.1037
      3 N          62.7698   87.2915   17.5428 N.ar    1  UNL1       -0.2269
      4 C          63.2183   88.4552   16.7092 C.ar    1  UNL1        0.1407
      5 N          63.0274   89.9347   16.8659 N.ar    1  UNL1       -0.3374
      6 C          63.6035   90.8768   15.8507 C.ar    1  UNL1        0.0735
      7 C          64.3704   90.3393   14.6789 C.ar    1  UNL1        0.0186
      8 C          64.5612   88.8598   14.5223 C.ar    1  UNL1        0.0047
      9 C          63.9852   87.9177   15.5375 C.ar    1  UNL1        0.0386
     10 H          62.5241   90.2874   17.6349 H       1  UNL1        0.1674
     11 C          64.9464   91.2815   13.6637 C.ar    1  UNL1        0.0207
     12 C          64.2623   91.4701   12.3423 C.ar    1  UNL1        0.0045
     13 C          64.8383   92.4122   11.3271 C.ar    1  UNL1        0.0343
     14 C          66.0986   93.1658   11.6335 C.ar    1  UNL1        0.1317
     15 N          66.7828   92.9772   12.9550 N.ar    1  UNL1       -0.2292
     16 C          66.2067   92.0351   13.9701 C.ar    1  UNL1        0.1003
     17 N          66.6747   94.1080   10.6184 N.pl3   1  UNL1       -0.2932
     18 C          66.4952   95.5970   10.5957 C.3     1  UNL1        0.0922
     19 C          67.2410   96.1358    9.4110 C.3     1  UNL1        0.0232
     20 C          67.8813   94.9797    8.7015 C.3     1  UNL1        0.0232
     21 C          67.5313   93.7264    9.4477 C.3     1  UNL1        0.0922
     22 C          64.6713   85.4788   14.6856 C.2     1  UNL1        0.2015
     23 O          66.1503   85.2420   14.7640 O.2     1  UNL1       -0.2864
     24 C          62.4465   84.8380   11.4622 C.ar    1  UNL1        0.0920
     25 C          62.2158   83.3595   11.5663 C.ar    1  UNL1        0.0204
     26 C          62.8035   82.5875   12.7102 C.ar    1  UNL1        0.0312
     27 C          63.6220   83.2938   13.7500 C.ar    1  UNL1        0.1454
     28 F          64.2097   82.5218   14.8939 F       1  UNL1       -0.2040
     29 C          63.8527   84.7723   13.6458 C.ar    1  UNL1        0.0951
     30 C          63.2650   85.5444   12.5019 C.ar    1  UNL1        0.1598
     31 F          63.4958   87.0229   12.3978 F       1  UNL1       -0.2026
     32 N          61.8588   85.6101   10.3183 N.pl3   1  UNL1       -0.2166
     33 H          61.6536   85.1539    9.4703 H       1  UNL1        0.1734
     34 S          61.5839   87.0772   10.4663 S.O2    1  UNL1        0.0540
     35 O          60.6124   86.7837   11.5709 O.2     1  UNL1       -0.1545
     36 O          62.5553   87.3707    9.3617 O.2     1  UNL1       -0.1545
     37 C          61.3090   88.5443   10.6143 C.3     1  UNL1        0.1724
     38 C          59.6894   90.4719   11.2558 C.3     1  UNL1        0.0019
     39 C          60.0140   89.0081   11.2127 C.3     1  UNL1        0.0273
@<TRIPOS>BOND
     1    38    39    1
     2    39    37    1
     3    37    34    1
     4    34    35    2
     5    34    36    2
     6    34    32    1
     7    32    24    1
     8    24    25   ar
     9    25    26   ar
    10    26    27   ar
    11    27    28    1
    12    27    29   ar
    13    29    22    1
    14    22    23    2
    15    22     1    1
    16     1     2   ar
    17     2     3   ar
    18     3     4   ar
    19     4     5   ar
    20     5     6   ar
    21     6     7   ar
    22     7    11    1
    23    11    12   ar
    24    12    13   ar
    25    13    14   ar
    26    14    17    1
    27    17    18    1
    28    18    19    1
    29    19    20    1
    30    20    21    1
    31    14    15   ar
    32    15    16   ar
    33     7     8   ar
    34     8     9   ar
    35    29    30   ar
    36    30    31    1
    37    30    24   ar
    38     9     1   ar
    39     9     4    1
    40    16    11   ar
    41    21    17    1
    42    32    33    1
    43     5    10    1
@<TRIPOS>MOLECULE
*****
 39 43 0 0 0
SMALL
GASTEIGER

@<TRIPOS>ATOM
      1 C          61.4417   86.4113    9.1943 C.ar    1  UNL1        0.0611
      2 C          60.0932   86.3251    8.5431 C.ar    1  UNL1        0.1037
      3 N          59.3461   87.5878    8.8554 N.ar    1  UNL1       -0.2269
      4 C          60.2329   88.4544    9.6996 C.ar    1  UNL1        0.1407
      5 N          60.0284   89.8116   10.3047 N.ar    1  UNL1       -0.3374
      6 C          61.1190   90.4416   11.1192 C.ar    1  UNL1        0.0735
      7 C          62.4142   89.7145   11.3287 C.ar    1  UNL1        0.0186
      8 C          62.6187   88.3573   10.7236 C.ar    1  UNL1        0.0047
      9 C          61.5281   87.7272    9.9091 C.ar    1  UNL1        0.0386
     10 H          59.1783   90.2888   10.1672 H       1  UNL1        0.1674
     11 C          63.5049   90.3446   12.1432 C.ar    1  UNL1        0.0207
     12 C          63.8794   89.7619   13.4736 C.ar    1  UNL1        0.0045
     13 C          64.9701   90.3920   14.2882 C.ar    1  UNL1        0.0343
     14 C          65.6861   91.6049   13.7723 C.ar    1  UNL1        0.1317
     15 N          65.3115   92.1877   12.4418 N.ar    1  UNL1       -0.2292
     16 C          64.2209   91.5575   11.6273 C.ar    1  UNL1        0.1003
     17 N          66.7768   92.2351   14.5867 N.pl3   1  UNL1       -0.2932
     18 C          67.8399   91.5044   15.3523 C.3     1  UNL1        0.0922
     19 C          68.7159   92.5243   16.0174 C.3     1  UNL1        0.0232
     20 C          68.1942   93.8853   15.6629 C.3     1  UNL1        0.0232
     21 C          66.9958   93.7065   14.7787 C.3     1  UNL1        0.0922
     22 C          62.5154   85.3652    9.1402 C.2     1  UNL1        0.2015
     23 O          63.1854   85.0448    7.8371 O.2     1  UNL1       -0.2864
     24 C          62.6684   84.2501   12.9459 C.ar    1  UNL1        0.0920
     25 C          63.7262   83.1881   12.8878 C.ar    1  UNL1        0.0204
     26 C          64.3803   82.8518   11.5805 C.ar    1  UNL1        0.0312
     27 C          63.9768   83.5775   10.3313 C.ar    1  UNL1        0.1454
     28 F          64.6309   83.2412    9.0240 F       1  UNL1       -0.2040
     29 C          62.9190   84.6395   10.3895 C.ar    1  UNL1        0.0951
     30 C          62.2649   84.9757   11.6968 C.ar    1  UNL1        0.1598
     31 F          61.2071   86.0377   11.7548 F       1  UNL1       -0.2026
     32 N          62.0143   84.5863   14.2532 N.pl3   1  UNL1       -0.2166
     33 H          61.0540   84.4121   14.3824 H       1  UNL1        0.1734
     34 S          62.8233   85.1880   15.3638 S.O2    1  UNL1        0.0540
     35 O          62.1888   84.2413   16.3390 O.2     1  UNL1       -0.1545
     36 O          63.4579   86.1348   14.3886 O.2     1  UNL1       -0.1545
     37 C          63.6324   85.7898   16.4743 C.3     1  UNL1        0.1724
     38 C          63.0614   88.2393   17.1257 C.3     1  UNL1        0.0019
     39 C          62.9994   86.7693   17.4177 C.3     1  UNL1        0.0273
@<TRIPOS>BOND
     1    38    39    1
     2    39    37    1
     3    37    34    1
     4    34    35    2
     5    34    36    2
     6    34    32    1
     7    32    24    1
     8    24    25   ar
     9    25    26   ar
    10    26    27   ar
    11    27    28    1
    12    27    29   ar
    13    29    22    1
    14    22    23    2
    15    22     1    1
    16     1     2   ar
    17     2     3   ar
    18     3     4   ar
    19     4     5   ar
    20     5     6   ar
    21     6     7   ar
    22     7    11    1
    23    11    12   ar
    24    12    13   ar
    25    13    14   ar
    26    14    17    1
    27    17    18    1
    28    18    19    1
    29    19    20    1
    30    20    21    1
    31    14    15   ar
    32    15    16   ar
    33     7     8   ar
    34     8     9   ar
    35    29    30   ar
    36    30    31    1
    37    30    24   ar
    38     9     1   ar
    39     9     4    1
    40    16    11   ar
    41    21    17    1
    42    32    33    1
    43     5    10    1
@<TRIPOS>MOLECULE
*****
 39 43 0 0 0
SMALL
GASTEIGER

@<TRIPOS>ATOM
      1 C          63.4047   84.8630   14.3676 C.ar    1  UNL1        0.0611
      2 C          62.7915   84.1653   15.5453 C.ar    1  UNL1        0.1037
      3 N          62.5334   85.1910   16.6090 N.ar    1  UNL1       -0.2269
      4 C          62.9871   86.5227   16.0886 C.ar    1  UNL1        0.1407
      5 N          62.9794   87.8936   16.6971 N.ar    1  UNL1       -0.3374
      6 C          63.5102   89.0619   15.9204 C.ar    1  UNL1        0.0735
      7 C          64.0487   88.8592   14.5351 C.ar    1  UNL1        0.0186
      8 C          64.0563   87.4883   13.9266 C.ar    1  UNL1        0.0047
      9 C          63.5255   86.3200   14.7033 C.ar    1  UNL1        0.0386
     10 H          62.6260   88.0266   17.6063 H       1  UNL1        0.1674
     11 C          64.5795   90.0276   13.7584 C.ar    1  UNL1        0.0207
     12 C          65.7693   90.7872   14.2657 C.ar    1  UNL1        0.0045
     13 C          66.3001   91.9556   13.4890 C.ar    1  UNL1        0.0343
     14 C          65.6411   92.3642   12.2050 C.ar    1  UNL1        0.1317
     15 N          64.4512   91.6046   11.6977 N.ar    1  UNL1       -0.2292
     16 C          63.9205   90.4363   12.4744 C.ar    1  UNL1        0.1003
     17 N          66.1718   93.5325   11.4282 N.pl3   1  UNL1       -0.2932
     18 C          66.9091   93.4624   10.1238 C.3     1  UNL1        0.0922
     19 C          67.2514   94.8626    9.7089 C.3     1  UNL1        0.0232
     20 C          66.7257   95.7982   10.7570 C.3     1  UNL1        0.0232
     21 C          66.0585   94.9761   11.8196 C.3     1  UNL1        0.0922
     22 C          63.8234   84.2173   13.0801 C.2     1  UNL1        0.2015
     23 O          64.8297   83.1051   13.0914 O.2     1  UNL1       -0.2864
     24 C          61.4452   86.0463   10.4822 C.ar    1  UNL1        0.0920
     25 C          62.0605   85.6167    9.1834 C.ar    1  UNL1        0.0204
     26 C          63.2634   84.7206    9.1835 C.ar    1  UNL1        0.0312
     27 C          63.8511   84.2541   10.4823 C.ar    1  UNL1        0.1454
     28 F          65.0540   83.3580   10.4824 F       1  UNL1       -0.2040
     29 C          63.2358   84.6838   11.7811 C.ar    1  UNL1        0.0951
     30 C          62.0328   85.5799   11.7810 C.ar    1  UNL1        0.1598
     31 F          61.4176   86.0094   13.0799 F       1  UNL1       -0.2026
     32 N          60.2423   86.9424   10.4821 N.pl3   1  UNL1       -0.2166
     33 H          59.5347   86.8167   11.1550 H       1  UNL1        0.1734
     34 S          60.1174   88.0301    9.4568 S.O2    1  UNL1        0.0540
     35 O          59.1230   87.2015    8.6989 O.2     1  UNL1       -0.1545
     36 O          61.1118   88.8588   10.2148 O.2     1  UNL1       -0.1545
     37 C          59.9926   89.1179    8.4315 C.3     1  UNL1        0.1724
     38 C          59.2854   89.8946    6.0552 C.3     1  UNL1        0.0019
     39 C          59.3189   88.8392    7.1206 C.3     1  UNL1        0.0273
@<TRIPOS>BOND
     1    38    39    1
     2    39    37    1
     3    37    34    1
     4    34    35    2
     5    34    36    2
     6    34    32    1
     7    32    24    1
     8    24    25   ar
     9    25    26   ar
    10    26    27   ar
    11    27    28    1
    12    27    29   ar
    13    29    22    1
    14    22    23    2
    15    22     1    1
    16     1     2   ar
    17     2     3   ar
    18     3     4   ar
    19     4     5   ar
    20     5     6   ar
    21     6     7   ar
    22     7    11    1
    23    11    12   ar
    24    12    13   ar
    25    13    14   ar
    26    14    17    1
    27    17    18    1
    28    18    19    1
    29    19    20    1
    30    20    21    1
    31    14    15   ar
    32    15    16   ar
    33     7     8   ar
    34     8     9   ar
    35    29    30   ar
    36    30    31    1
    37    30    24   ar
    38     9     1   ar
    39     9     4    1
    40    16    11   ar
    41    21    17    1
    42    32    33    1
    43     5    10    1
