@<TRIPOS>MOLECULE
*****
 23 25 0 0 0
SMALL
GASTEIGER

@<TRIPOS>ATOM
      1 N          65.8229   92.5622   13.4880 N.am    1  UNL1       -0.2185
      2 C          66.4371   92.7355   14.8455 C.2     1  UNL1        0.2546
      3 O          67.6616   93.5418   15.1627 O.2     1  UNL1       -0.2723
      4 C          65.6120   91.9610   15.8300 C.3     1  UNL1        0.1795
      5 N          64.4877   91.3090   15.0810 N.am    1  UNL1       -0.2783
      6 C          64.6181   91.6805   13.6336 C.2     1  UNL1        0.1482
      7 S          63.7041   91.2466   12.5262 S.2     1  UNL1       -0.0177
      8 C          67.3299   94.3697    9.6524 C.ar    1  UNL1        0.1492
      9 C          66.5454   95.2069   10.6187 C.ar    1  UNL1        0.0391
     10 C          66.0430   94.6044   11.8972 C.ar    1  UNL1        0.0185
     11 C          66.3252   93.1647   12.2095 C.ar    1  UNL1        0.0608
     12 C          67.1097   92.3275   11.2433 C.ar    1  UNL1        0.0297
     13 C          67.6120   92.9300    9.9647 C.ar    1  UNL1        0.0928
     14 CL         68.3966   92.0928    8.9985 Cl      1  UNL1       -0.0790
     15 C          67.4728   96.3844    8.0183 C.3     1  UNL1        0.2525
     16 O          67.8322   94.9723    8.3739 O.3     1  UNL1       -0.4706
     17 C          63.4205   90.4383   15.6751 C.3     1  UNL1        0.1196
     18 C          63.6128   88.9519   15.7358 C.ar    1  UNL1       -0.0024
     19 C          63.0436   88.1682   16.8811 C.ar    1  UNL1       -0.0026
     20 C          63.2359   86.6819   16.9419 C.ar    1  UNL1       -0.0003
     21 C          63.9974   85.9792   15.8573 C.ar    1  UNL1       -0.0000
     22 C          64.5666   86.7629   14.7120 C.ar    1  UNL1       -0.0003
     23 C          64.3743   88.2493   14.6513 C.ar    1  UNL1       -0.0026
@<TRIPOS>BOND
     1    15    16    1
     2    16     8    1
     3     8     9   ar
     4     9    10   ar
     5    10    11   ar
     6    11     1    1
     7     1     2   am
     8     2     3    2
     9     2     4    1
    10     4     5    1
    11     5    17    1
    12    17    18    1
    13    18    19   ar
    14    19    20   ar
    15    20    21   ar
    16    21    22   ar
    17    22    23   ar
    18     5     6    1
    19     6     7    2
    20    11    12   ar
    21    12    13   ar
    22    13    14    1
    23    13     8   ar
    24     6     1    1
    25    23    18   ar
@<TRIPOS>MOLECULE
*****
 23 25 0 0 0
SMALL
GASTEIGER

@<TRIPOS>ATOM
      1 N          64.8106   91.9431   12.1115 N.am    1  UNL1       -0.2185
      2 C          63.6247   91.1287   11.6870 C.2     1  UNL1        0.2546
      3 O          63.0493   91.0639   10.3033 O.2     1  UNL1       -0.2723
      4 C          63.1151   90.3904   12.8892 C.3     1  UNL1        0.1795
      5 N          63.9861   90.7485   14.0567 N.am    1  UNL1       -0.2783
      6 C          65.0340   91.7082   13.5760 C.2     1  UNL1        0.1482
      7 S          66.1154   92.3246   14.4130 S.2     1  UNL1       -0.0177
      8 C          67.2671   94.6211    9.4574 C.ar    1  UNL1        0.1492
      9 C          66.1186   95.1880   10.2381 C.ar    1  UNL1        0.0391
     10 C          65.2998   94.2954   11.1228 C.ar    1  UNL1        0.0185
     11 C          65.6295   92.8358   11.2268 C.ar    1  UNL1        0.0608
     12 C          66.7779   92.2689   10.4461 C.ar    1  UNL1        0.0297
     13 C          67.5967   93.1615    9.5614 C.ar    1  UNL1        0.0928
     14 CL         68.7453   92.5945    8.7807 Cl      1  UNL1       -0.0790
     15 C          67.5070   96.8005    8.0635 C.3     1  UNL1        0.2525
     16 O          68.0859   95.5138    8.5727 O.3     1  UNL1       -0.4706
     17 C          63.8357   90.2369   15.4587 C.3     1  UNL1        0.1196
     18 C          63.7656   88.7606   15.7148 C.ar    1  UNL1       -0.0024
     19 C          64.4165   87.8023   14.7619 C.ar    1  UNL1       -0.0026
     20 C          64.3464   86.3261   15.0181 C.ar    1  UNL1       -0.0003
     21 C          63.6255   85.8080   16.2272 C.ar    1  UNL1       -0.0000
     22 C          62.9746   86.7663   17.1801 C.ar    1  UNL1       -0.0003
     23 C          63.0447   88.2426   16.9239 C.ar    1  UNL1       -0.0026
@<TRIPOS>BOND
     1    15    16    1
     2    16     8    1
     3     8     9   ar
     4     9    10   ar
     5    10    11   ar
     6    11     1    1
     7     1     2   am
     8     2     3    2
     9     2     4    1
    10     4     5    1
    11     5    17    1
    12    17    18    1
    13    18    19   ar
    14    19    20   ar
    15    20    21   ar
    16    21    22   ar
    17    22    23   ar
    18     5     6    1
    19     6     7    2
    20    11    12   ar
    21    12    13   ar
    22    13    14    1
    23    13     8   ar
    24     6     1    1
    25    23    18   ar
@<TRIPOS>MOLECULE
*****
 23 25 0 0 0
SMALL
GASTEIGER

@<TRIPOS>ATOM
      1 N          63.3525   90.1210   12.2394 N.am    1  UNL1       -0.2185
      2 C          63.8266   89.8646   13.6392 C.2     1  UNL1        0.2546
      3 O          63.3582   88.7607   14.5404 O.2     1  UNL1       -0.2723
      4 C          64.8513   90.9057   13.9797 C.3     1  UNL1        0.1795
      5 N          65.0105   91.8057   12.7903 N.am    1  UNL1       -0.2783
      6 C          64.0842   91.3208   11.7148 C.2     1  UNL1        0.1482
      7 S          63.9187   91.9288   10.3536 S.2     1  UNL1       -0.0177
      8 C          60.2754   87.7140   10.0061 C.ar    1  UNL1        0.1492
      9 C          60.1067   89.1974   10.1510 C.ar    1  UNL1        0.0391
     10 C          61.1324   89.9997   10.8954 C.ar    1  UNL1        0.0185
     11 C          62.3268   89.3187   11.4950 C.ar    1  UNL1        0.0608
     12 C          62.4955   87.8353   11.3501 C.ar    1  UNL1        0.0297
     13 C          61.4698   87.0329   10.6057 C.ar    1  UNL1        0.0928
     14 CL         61.6386   85.5495   10.4609 Cl      1  UNL1       -0.0790
     15 C          59.3816   86.7152    7.7805 C.3     1  UNL1        0.2525
     16 O          59.2497   86.9116    9.2617 O.3     1  UNL1       -0.4706
     17 C          65.9339   92.9839   12.6934 C.3     1  UNL1        0.1196
     18 C          66.7147   93.2234   11.4352 C.ar    1  UNL1       -0.0024
     19 C          66.6015   94.5375   10.7210 C.ar    1  UNL1       -0.0026
     20 C          67.3822   94.7771    9.4629 C.ar    1  UNL1       -0.0003
     21 C          68.2762   93.7024    8.9189 C.ar    1  UNL1       -0.0000
     22 C          68.3894   92.3883    9.6332 C.ar    1  UNL1       -0.0003
     23 C          67.6087   92.1487   10.8914 C.ar    1  UNL1       -0.0026
@<TRIPOS>BOND
     1    15    16    1
     2    16     8    1
     3     8     9   ar
     4     9    10   ar
     5    10    11   ar
     6    11     1    1
     7     1     2   am
     8     2     3    2
     9     2     4    1
    10     4     5    1
    11     5    17    1
    12    17    18    1
    13    18    19   ar
    14    19    20   ar
    15    20    21   ar
    16    21    22   ar
    17    22    23   ar
    18     5     6    1
    19     6     7    2
    20    11    12   ar
    21    12    13   ar
    22    13    14    1
    23    13     8   ar
    24     6     1    1
    25    23    18   ar
@<TRIPOS>MOLECULE
*****
 23 25 0 0 0
SMALL
GASTEIGER

@<TRIPOS>ATOM
      1 N          63.5145   90.1071   11.8766 N.am    1  UNL1       -0.2185
      2 C          62.8144   90.4040   10.5837 C.2     1  UNL1        0.2546
      3 O          62.9084   91.6817    9.8034 O.2     1  UNL1       -0.2723
      4 C          62.0039   89.1991   10.2080 C.3     1  UNL1        0.1795
      5 N          62.2030   88.1574   11.2688 N.am    1  UNL1       -0.2783
      6 C          63.1367   88.7186   12.3000 C.2     1  UNL1        0.1482
      7 S          63.6094   88.0147   13.5374 S.2     1  UNL1       -0.0177
      8 C          66.2655   92.8925   14.0955 C.ar    1  UNL1        0.1492
      9 C          65.7145   91.6780   14.7821 C.ar    1  UNL1        0.0391
     10 C          64.7976   90.7495   14.0425 C.ar    1  UNL1        0.0185
     11 C          64.4315   91.0355   12.6163 C.ar    1  UNL1        0.0608
     12 C          64.9824   92.2500   11.9297 C.ar    1  UNL1        0.0297
     13 C          65.8994   93.1785   12.6693 C.ar    1  UNL1        0.0928
     14 CL         66.4503   94.3931   11.9827 Cl      1  UNL1       -0.0790
     15 C          68.2236   93.2664   15.7616 C.3     1  UNL1        0.2525
     16 O          67.1824   93.8210   14.8352 O.3     1  UNL1       -0.4706
     17 C          61.5783   86.7939   11.2939 C.3     1  UNL1        0.1196
     18 C          62.3810   85.5935   10.8881 C.ar    1  UNL1       -0.0024
     19 C          62.7459   85.3872    9.4479 C.ar    1  UNL1       -0.0026
     20 C          63.5485   84.1868    9.0421 C.ar    1  UNL1       -0.0003
     21 C          63.9863   83.1927   10.0765 C.ar    1  UNL1       -0.0000
     22 C          63.6214   83.3990   11.5167 C.ar    1  UNL1       -0.0003
     23 C          62.8187   84.5994   11.9225 C.ar    1  UNL1       -0.0026
@<TRIPOS>BOND
     1    15    16    1
     2    16     8    1
     3     8     9   ar
     4     9    10   ar
     5    10    11   ar
     6    11     1    1
     7     1     2   am
     8     2     3    2
     9     2     4    1
    10     4     5    1
    11     5    17    1
    12    17    18    1
    13    18    19   ar
    14    19    20   ar
    15    20    21   ar
    16    21    22   ar
    17    22    23   ar
    18     5     6    1
    19     6     7    2
    20    11    12   ar
    21    12    13   ar
    22    13    14    1
    23    13     8   ar
    24     6     1    1
    25    23    18   ar
@<TRIPOS>MOLECULE
*****
 23 25 0 0 0
SMALL
GASTEIGER

@<TRIPOS>ATOM
      1 N          63.5643   89.4613   12.5036 N.am    1  UNL1       -0.2185
      2 C          63.4942   88.0555   13.0219 C.2     1  UNL1        0.2546
      3 O          64.2670   87.5045   14.1834 O.2     1  UNL1       -0.2723
      4 C          62.5155   87.2973   12.1749 C.3     1  UNL1        0.1795
      5 N          61.9808   88.2346   11.1330 N.am    1  UNL1       -0.2783
      6 C          62.6289   89.5720   11.3362 C.2     1  UNL1        0.1482
      7 S          62.3846   90.8039   10.5159 S.2     1  UNL1       -0.0177
      8 C          66.1300   92.7664   14.1600 C.ar    1  UNL1        0.1492
      9 C          65.7229   91.6208   15.0387 C.ar    1  UNL1        0.0391
     10 C          64.8677   90.5191   14.4865 C.ar    1  UNL1        0.0185
     11 C          64.4195   90.5630   13.0557 C.ar    1  UNL1        0.0608
     12 C          64.8265   91.7085   12.1771 C.ar    1  UNL1        0.0297
     13 C          65.6818   92.8102   12.7293 C.ar    1  UNL1        0.0928
     14 CL         66.0888   93.9558   11.8506 Cl      1  UNL1       -0.0790
     15 C          68.0430   93.5582   15.7295 C.3     1  UNL1        0.2525
     16 O          66.9852   93.8680   14.7122 O.3     1  UNL1       -0.4706
     17 C          60.9746   87.8943   10.0739 C.3     1  UNL1        0.1196
     18 C          61.2957   86.8557    9.0403 C.ar    1  UNL1       -0.0024
     19 C          62.6591   86.2316    9.0025 C.ar    1  UNL1       -0.0026
     20 C          62.9802   85.1931    7.9690 C.ar    1  UNL1       -0.0003
     21 C          61.9378   84.7786    6.9732 C.ar    1  UNL1       -0.0000
     22 C          60.5744   85.4027    7.0110 C.ar    1  UNL1       -0.0003
     23 C          60.2533   86.4413    8.0446 C.ar    1  UNL1       -0.0026
@<TRIPOS>BOND
     1    15    16    1
     2    16     8    1
     3     8     9   ar
     4     9    10   ar
     5    10    11   ar
     6    11     1    1
     7     1     2   am
     8     2     3    2
     9     2     4    1
    10     4     5    1
    11     5    17    1
    12    17    18    1
    13    18    19   ar
    14    19    20   ar
    15    20    21   ar
    16    21    22   ar
    17    22    23   ar
    18     5     6    1
    19     6     7    2
    20    11    12   ar
    21    12    13   ar
    22    13    14    1
    23    13     8   ar
    24     6     1    1
    25    23    18   ar
@<TRIPOS>MOLECULE
*****
 23 25 0 0 0
SMALL
GASTEIGER

@<TRIPOS>ATOM
      1 N          63.7735   90.3463   12.0243 N.am    1  UNL1       -0.2185
      2 C          63.1662   90.7546   10.7150 C.2     1  UNL1        0.2546
      3 O          63.3423   92.0810   10.0369 O.2     1  UNL1       -0.2723
      4 C          62.3518   89.6038   10.2027 C.3     1  UNL1        0.1795
      5 N          62.4558   88.4841   11.1954 N.am    1  UNL1       -0.2783
      6 C          63.3344   88.9430   12.3212 C.2     1  UNL1        0.1482
      7 S          63.7084   88.1397   13.5315 S.2     1  UNL1       -0.0177
      8 C          66.4435   92.8851   14.6080 C.ar    1  UNL1        0.1492
      9 C          66.6843   92.8071   13.1295 C.ar    1  UNL1        0.0391
     10 C          65.7943   91.9608   12.2683 C.ar    1  UNL1        0.0185
     11 C          64.6635   91.1925   12.8855 C.ar    1  UNL1        0.0608
     12 C          64.4227   91.2706   14.3640 C.ar    1  UNL1        0.0297
     13 C          65.3127   92.1168   15.2252 C.ar    1  UNL1        0.0928
     14 CL         65.0719   92.1948   16.7038 Cl      1  UNL1       -0.0790
     15 C          68.7512   93.3120   15.7224 C.3     1  UNL1        0.2525
     16 O          67.3335   93.7314   15.4692 O.3     1  UNL1       -0.4706
     17 C          61.7969   87.1414   11.0822 C.3     1  UNL1        0.1196
     18 C          61.6547   86.4864    9.7403 C.ar    1  UNL1       -0.0024
     19 C          60.3712   86.6157    8.9749 C.ar    1  UNL1       -0.0026
     20 C          60.2289   85.9608    7.6330 C.ar    1  UNL1       -0.0003
     21 C          61.3702   85.1766    7.0564 C.ar    1  UNL1       -0.0000
     22 C          62.6538   85.0473    7.8218 C.ar    1  UNL1       -0.0003
     23 C          62.7960   85.7023    9.1638 C.ar    1  UNL1       -0.0026
@<TRIPOS>BOND
     1    15    16    1
     2    16     8    1
     3     8     9   ar
     4     9    10   ar
     5    10    11   ar
     6    11     1    1
     7     1     2   am
     8     2     3    2
     9     2     4    1
    10     4     5    1
    11     5    17    1
    12    17    18    1
    13    18    19   ar
    14    19    20   ar
    15    20    21   ar
    16    21    22   ar
    17    22    23   ar
    18     5     6    1
    19     6     7    2
    20    11    12   ar
    21    12    13   ar
    22    13    14    1
    23    13     8   ar
    24     6     1    1
    25    23    18   ar
@<TRIPOS>MOLECULE
*****
 23 25 0 0 0
SMALL
GASTEIGER

@<TRIPOS>ATOM
      1 N          63.3001   85.6203   12.6414 N.am    1  UNL1       -0.2185
      2 C          64.0671   86.2027   13.7914 C.2     1  UNL1        0.2546
      3 O          64.8492   85.4295   14.8114 O.2     1  UNL1       -0.2723
      4 C          63.9148   87.6942   13.7423 C.3     1  UNL1        0.1795
      5 N          63.0536   88.0335   12.5620 N.am    1  UNL1       -0.2783
      6 C          62.6737   86.7518   11.8816 C.2     1  UNL1        0.1482
      7 S          61.8176   86.6240   10.6565 S.2     1  UNL1       -0.0177
      8 C          62.9411   81.2465   11.6459 C.ar    1  UNL1        0.1492
      9 C          63.6468   82.1749   10.7025 C.ar    1  UNL1        0.0391
     10 C          63.7664   83.6329   11.0344 C.ar    1  UNL1        0.0185
     11 C          63.1804   84.1623   12.3096 C.ar    1  UNL1        0.0608
     12 C          62.4747   83.2339   13.2529 C.ar    1  UNL1        0.0297
     13 C          62.3551   81.7760   12.9211 C.ar    1  UNL1        0.0928
     14 CL         61.6494   80.8475   13.8645 Cl      1  UNL1       -0.0790
     15 C          62.8736   79.3381    9.8842 C.3     1  UNL1        0.2525
     16 O          62.8215   79.7886   11.3140 O.3     1  UNL1       -0.4706
     17 C          62.6442   89.4124   12.1367 C.3     1  UNL1        0.1196
     18 C          63.6543   90.5211   12.1137 C.ar    1  UNL1       -0.0024
     19 C          63.8895   91.2954   10.8507 C.ar    1  UNL1       -0.0026
     20 C          64.8995   92.4040   10.8277 C.ar    1  UNL1       -0.0003
     21 C          65.6744   92.7385   12.0677 C.ar    1  UNL1       -0.0000
     22 C          65.4392   91.9642   13.3307 C.ar    1  UNL1       -0.0003
     23 C          64.4291   90.8555   13.3537 C.ar    1  UNL1       -0.0026
@<TRIPOS>BOND
     1    15    16    1
     2    16     8    1
     3     8     9   ar
     4     9    10   ar
     5    10    11   ar
     6    11     1    1
     7     1     2   am
     8     2     3    2
     9     2     4    1
    10     4     5    1
    11     5    17    1
    12    17    18    1
    13    18    19   ar
    14    19    20   ar
    15    20    21   ar
    16    21    22   ar
    17    22    23   ar
    18     5     6    1
    19     6     7    2
    20    11    12   ar
    21    12    13   ar
    22    13    14    1
    23    13     8   ar
    24     6     1    1
    25    23    18   ar
@<TRIPOS>MOLECULE
*****
 23 25 0 0 0
SMALL
GASTEIGER

@<TRIPOS>ATOM
      1 N          63.4771   86.4923   13.1500 N.am    1  UNL1       -0.2185
      2 C          64.2642   87.1152   14.2647 C.2     1  UNL1        0.2546
      3 O          64.9823   86.3781   15.3560 O.2     1  UNL1       -0.2723
      4 C          64.2072   88.6047   14.0964 C.3     1  UNL1        0.1795
      5 N          63.3848   88.9023   12.8778 N.am    1  UNL1       -0.2783
      6 C          62.9336   87.5968   12.2929 C.2     1  UNL1        0.1482
      7 S          62.0874   87.4258   11.0662 S.2     1  UNL1       -0.0177
      8 C          62.8555   82.0841   12.4930 C.ar    1  UNL1        0.1492
      9 C          62.3663   82.7306   13.7550 C.ar    1  UNL1        0.0391
     10 C          62.5735   84.2000   13.9740 C.ar    1  UNL1        0.0185
     11 C          63.2699   85.0229   12.9310 C.ar    1  UNL1        0.0608
     12 C          63.7591   84.3764   11.6690 C.ar    1  UNL1        0.0297
     13 C          63.5519   82.9070   11.4500 C.ar    1  UNL1        0.0928
     14 CL         64.0411   82.2605   10.1880 Cl      1  UNL1       -0.0790
     15 C          62.2535   79.7337   13.4220 C.3     1  UNL1        0.2525
     16 O          62.6483   80.6147   12.2740 O.3     1  UNL1       -0.4706
     17 C          63.0690   90.2660   12.3386 C.3     1  UNL1        0.1196
     18 C          64.1670   91.2700   12.1483 C.ar    1  UNL1       -0.0024
     19 C          65.0401   91.6550   13.3057 C.ar    1  UNL1       -0.0026
     20 C          66.1381   92.6590   13.1154 C.ar    1  UNL1       -0.0003
     21 C          66.3631   93.2780   11.7678 C.ar    1  UNL1       -0.0000
     22 C          65.4900   92.8931   10.6104 C.ar    1  UNL1       -0.0003
     23 C          64.3919   91.8890   10.8007 C.ar    1  UNL1       -0.0026
@<TRIPOS>BOND
     1    15    16    1
     2    16     8    1
     3     8     9   ar
     4     9    10   ar
     5    10    11   ar
     6    11     1    1
     7     1     2   am
     8     2     3    2
     9     2     4    1
    10     4     5    1
    11     5    17    1
    12    17    18    1
    13    18    19   ar
    14    19    20   ar
    15    20    21   ar
    16    21    22   ar
    17    22    23   ar
    18     5     6    1
    19     6     7    2
    20    11    12   ar
    21    12    13   ar
    22    13    14    1
    23    13     8   ar
    24     6     1    1
    25    23    18   ar
@<TRIPOS>MOLECULE
*****
 23 25 0 0 0
SMALL
GASTEIGER

@<TRIPOS>ATOM
      1 N          62.9248   86.8162   12.2417 N.am    1  UNL1       -0.2185
      2 C          62.2112   87.4707   11.0961 C.2     1  UNL1        0.2546
      3 O          61.5264   86.7636    9.9643 O.2     1  UNL1       -0.2723
      4 C          62.3025   88.9564   11.2811 C.3     1  UNL1        0.1795
      5 N          63.0726   89.2202   12.5410 N.am    1  UNL1       -0.2783
      6 C          63.4572   87.8975   13.1346 C.2     1  UNL1        0.1482
      7 S          64.2373   87.6921   14.3992 S.2     1  UNL1       -0.0177
      8 C          63.3874   82.3867   12.8862 C.ar    1  UNL1        0.1492
      9 C          63.0445   83.2808   14.0407 C.ar    1  UNL1        0.0391
     10 C          62.8903   84.7573   13.8259 C.ar    1  UNL1        0.0185
     11 C          63.0790   85.3397   12.4565 C.ar    1  UNL1        0.0608
     12 C          63.4220   84.4456   11.3020 C.ar    1  UNL1        0.0297
     13 C          63.5762   82.9691   11.5169 C.ar    1  UNL1        0.0928
     14 CL         63.9192   82.0749   10.3623 Cl      1  UNL1       -0.0790
     15 C          62.3274   80.0466   13.2740 C.3     1  UNL1        0.2525
     16 O          63.5416   80.9102   13.1011 O.3     1  UNL1       -0.4706
     17 C          63.4005   90.5697   13.1077 C.3     1  UNL1        0.1196
     18 C          64.5327   91.3692   12.5340 C.ar    1  UNL1       -0.0024
     19 C          64.4517   91.8808   11.1263 C.ar    1  UNL1       -0.0026
     20 C          65.5838   92.6803   10.5526 C.ar    1  UNL1       -0.0003
     21 C          66.7969   92.9681   11.3866 C.ar    1  UNL1       -0.0000
     22 C          66.8778   92.4565   12.7943 C.ar    1  UNL1       -0.0003
     23 C          65.7457   91.6570   13.3680 C.ar    1  UNL1       -0.0026
@<TRIPOS>BOND
     1    15    16    1
     2    16     8    1
     3     8     9   ar
     4     9    10   ar
     5    10    11   ar
     6    11     1    1
     7     1     2   am
     8     2     3    2
     9     2     4    1
    10     4     5    1
    11     5    17    1
    12    17    18    1
    13    18    19   ar
    14    19    20   ar
    15    20    21   ar
    16    21    22   ar
    17    22    23   ar
    18     5     6    1
    19     6     7    2
    20    11    12   ar
    21    12    13   ar
    22    13    14    1
    23    13     8   ar
    24     6     1    1
    25    23    18   ar
