@<TRIPOS>MOLECULE
*****
 56 61 0 0 0
SMALL
GASTEIGER

@<TRIPOS>ATOM
      1 C          62.1166   85.7411   10.9913 C.3     1  UNL1        0.1269
      2 O          61.0967   86.2108   11.9859 O.3     1  UNL1       -0.3830
      3 H          60.8000   87.1031   11.7478 H       1  UNL1        0.2104
      4 C          62.7358   84.3826   11.1367 C.3     1  UNL1        0.0401
      5 C          63.2114   83.9150   12.4803 C.3     1  UNL1        0.0833
      6 O          61.5263   84.5307   14.3596 O.2     1  UNL1       -0.2751
      7 C          62.8687   84.6997   13.7120 C.2     1  UNL1        0.2226
      8 N          63.8685   85.6533   14.2960 N.am    1  UNL1       -0.2999
      9 H          64.7495   85.7642   13.8709 H       1  UNL1        0.1498
     10 C          63.5259   86.4379   15.5276 C.3     1  UNL1        0.1278
     11 C          63.6958   87.9282   15.5389 C.ar    1  UNL1        0.0320
     12 C          64.2083   88.6339   14.3186 C.ar    1  UNL1        0.0004
     13 C          64.3782   90.1242   14.3299 C.ar    1  UNL1       -0.0001
     14 C          64.0357   90.9088   15.5615 C.ar    1  UNL1        0.0031
     15 C          63.5231   90.2031   16.7819 C.ar    1  UNL1        0.0366
     16 C          63.3532   88.7128   16.7706 C.ar    1  UNL1        0.1362
     17 O          62.8406   88.0071   17.9910 O.3     1  UNL1       -0.4730
     18 C          62.6707   86.5168   17.9797 C.3     1  UNL1        0.2364
     19 C          63.0133   85.7322   16.7480 C.3     1  UNL1        0.1762
     20 O          62.8434   84.2419   16.7367 O.3     1  UNL1       -0.3788
     21 H          62.5058   83.9485   17.5974 H       1  UNL1        0.2106
     22 C          64.0296   82.6628   12.5922 C.3     1  UNL1        0.0355
     23 C          63.5150   81.3768   12.0168 C.ar    1  UNL1       -0.0217
     24 C          63.5796   81.1382   10.5373 C.ar    1  UNL1       -0.0043
     25 C          63.0650   79.8520    9.9618 C.ar    1  UNL1       -0.0003
     26 C          62.4859   78.8045   10.8659 C.ar    1  UNL1       -0.0000
     27 C          62.4214   79.0431   12.3454 C.ar    1  UNL1       -0.0003
     28 C          62.9360   80.3291   12.9208 C.ar    1  UNL1       -0.0043
     29 C          62.5174   86.6299    9.8513 C.3     1  UNL1        0.1021
     30 N          61.4698   87.3678    9.0715 N.3     1  UNL1       -0.2621
     31 C          60.7313   86.6747    7.9650 C.3     1  UNL1        0.0901
     32 C          59.6838   87.4126    7.1852 C.3     1  UNL1        0.0900
     33 N          59.3746   88.8436    7.5120 N.3     1  UNL1       -0.2635
     34 C          60.1131   89.5366    8.6185 C.3     1  UNL1        0.0980
     35 C          61.1607   88.7987    9.3982 C.3     1  UNL1        0.1510
     36 C          61.8991   89.4917   10.5047 C.2     1  UNL1        0.2386
     37 O          61.5578   89.1952   11.9350 O.2     1  UNL1       -0.2736
     38 N          62.9790   90.4813   10.1810 N.am    1  UNL1       -0.2961
     39 H          63.2030   90.6760    9.2423 H       1  UNL1        0.1497
     40 C          63.7174   91.1744   11.2875 C.3     1  UNL1        0.1939
     41 C          64.7430   92.2203   10.9647 C.3     1  UNL1        0.4154
     42 F          65.7685   93.2663   10.6418 F       1  UNL1       -0.1682
     43 F          65.5557   91.7892   12.1494 F       1  UNL1       -0.1682
     44 F          63.9303   92.6515    9.7800 F       1  UNL1       -0.1682
     45 C          58.3271   89.5815    6.7322 C.3     1  UNL1        0.1377
     46 C          58.7330   90.5608    5.6709 C.ar    1  UNL1        0.1390
     47 C          57.8469   91.5921    5.0374 C.ar    1  UNL1        0.0375
     48 C          58.6624   92.3494    4.0318 C.ar    1  UNL1        0.0403
     49 C          60.0527   91.7861    4.0437 C.ar    1  UNL1        0.1450
     50 O          60.0962   90.6807    5.0567 O.2     1  UNL1       -0.4564
     51 C          61.1981   92.2472    3.1921 C.ar    1  UNL1        0.0376
     52 C          62.5261   91.5557    3.2829 C.ar    1  UNL1        0.0237
     53 C          63.6716   92.0169    2.4313 C.ar    1  UNL1        0.0990
     54 N          63.4891   93.1695    1.4889 N.ar    1  UNL1       -0.2423
     55 C          62.1610   93.8610    1.3980 C.ar    1  UNL1        0.0990
     56 C          61.0156   93.3998    2.2496 C.ar    1  UNL1        0.0237
@<TRIPOS>BOND
     1     6     7    2
     2     7     8   am
     3    10     8    1
     4    10    11    1
     5    11    12   ar
     6    12    13   ar
     7    13    14   ar
     8    14    15   ar
     9    15    16   ar
    10    16    17    1
    11    17    18    1
    12    18    19    1
    13    19    20    1
    14     7     5    1
    15     5    22    1
    16    22    23    1
    17    23    24   ar
    18    24    25   ar
    19    25    26   ar
    20    26    27   ar
    21    27    28   ar
    22     5     4    1
    23     4     1    1
    24     1     2    1
    25     1    29    1
    26    29    30    1
    27    30    31    1
    28    31    32    1
    29    32    33    1
    30    33    45    1
    31    45    46    1
    32    46    47   ar
    33    47    48   ar
    34    48    49   ar
    35    49    51    1
    36    51    52   ar
    37    52    53   ar
    38    53    54   ar
    39    54    55   ar
    40    55    56   ar
    41    49    50   ar
    42    33    34    1
    43    34    35    1
    44    35    36    1
    45    36    37    2
    46    36    38   am
    47    38    40    1
    48    40    41    1
    49    41    42    1
    50    41    43    1
    51    41    44    1
    52    19    10    1
    53    28    23   ar
    54    35    30    1
    55    16    11   ar
    56    50    46   ar
    57    56    51   ar
    58     8     9    1
    59    20    21    1
    60     2     3    1
    61    38    39    1
@<TRIPOS>MOLECULE
*****
 56 61 0 0 0
SMALL
GASTEIGER

@<TRIPOS>ATOM
      1 C          62.7411   86.5404   12.0899 C.3     1  UNL1        0.1269
      2 O          61.5845   85.5876   12.0252 O.3     1  UNL1       -0.3830
      3 H          60.8451   86.0078   11.5586 H       1  UNL1        0.2104
      4 C          64.0156   86.1283   12.7651 C.3     1  UNL1        0.0401
      5 C          64.0945   86.0965   14.2627 C.3     1  UNL1        0.0833
      6 O          63.6923   87.3627   16.4954 O.2     1  UNL1       -0.2751
      7 C          64.0654   87.3774   15.0427 C.2     1  UNL1        0.2226
      8 N          64.4095   88.6732   14.3698 N.am    1  UNL1       -0.2999
      9 H          64.6545   88.6829   13.4163 H       1  UNL1        0.1498
     10 C          64.3804   89.9541   15.1497 C.3     1  UNL1        0.1278
     11 C          65.5570   90.8837   15.1094 C.ar    1  UNL1        0.0320
     12 C          66.7626   90.5323   14.2891 C.ar    1  UNL1        0.0004
     13 C          67.9392   91.4619   14.2487 C.ar    1  UNL1       -0.0001
     14 C          67.9101   92.7428   15.0286 C.ar    1  UNL1        0.0031
     15 C          66.7045   93.0942   15.8489 C.ar    1  UNL1        0.0366
     16 C          65.5279   92.1646   15.8893 C.ar    1  UNL1        0.1362
     17 O          64.3222   92.5161   16.7096 O.3     1  UNL1       -0.4730
     18 C          63.1457   91.5865   16.7500 C.3     1  UNL1        0.2364
     19 C          63.1748   90.3055   15.9701 C.3     1  UNL1        0.1762
     20 O          61.9983   89.3759   16.0104 O.3     1  UNL1       -0.3788
     21 H          61.3100   89.7501   16.5824 H       1  UNL1        0.2106
     22 C          64.2026   84.7837   14.9803 C.3     1  UNL1        0.0355
     23 C          63.6289   83.5425   14.3638 C.ar    1  UNL1       -0.0217
     24 C          62.3609   82.9527   14.9063 C.ar    1  UNL1       -0.0043
     25 C          61.7872   81.7114   14.2897 C.ar    1  UNL1       -0.0003
     26 C          62.4816   81.0599   13.1307 C.ar    1  UNL1       -0.0000
     27 C          63.7496   81.6497   12.5882 C.ar    1  UNL1       -0.0003
     28 C          64.3233   82.8909   13.2047 C.ar    1  UNL1       -0.0043
     29 C          62.6234   87.9055   11.4793 C.3     1  UNL1        0.1021
     30 N          61.6740   88.1389   10.3416 N.3     1  UNL1       -0.2621
     31 C          60.9660   86.9794    9.7057 C.3     1  UNL1        0.0901
     32 C          60.0166   87.2128    8.5681 C.3     1  UNL1        0.0900
     33 N          59.7752   88.6057    8.0664 N.3     1  UNL1       -0.2635
     34 C          60.4832   89.7651    8.7023 C.3     1  UNL1        0.0980
     35 C          61.4326   89.5317    9.8399 C.3     1  UNL1        0.1510
     36 C          62.1406   90.6911   10.4758 C.2     1  UNL1        0.2386
     37 O          61.7208   91.1737   11.8326 O.2     1  UNL1       -0.2736
     38 N          63.2686   91.3681    9.7549 N.am    1  UNL1       -0.2961
     39 H          63.5441   91.0514    8.8644 H       1  UNL1        0.1497
     40 C          63.9766   92.5275   10.3908 C.3     1  UNL1        0.1939
     41 C          65.3902   92.3728   10.8683 C.3     1  UNL1        0.4154
     42 F          66.8037   92.2180   11.3457 F       1  UNL1       -0.1682
     43 F          64.9168   91.4878   11.9830 F       1  UNL1       -0.1682
     44 F          65.8635   93.2578    9.7536 F       1  UNL1       -0.1682
     45 C          58.8258   88.8391    6.9288 C.3     1  UNL1        0.1377
     46 C          59.0598   89.9753    5.9777 C.ar    1  UNL1        0.1390
     47 C          58.0686   91.0421    5.6178 C.ar    1  UNL1        0.0375
     48 C          58.7222   91.9703    4.6373 C.ar    1  UNL1        0.0403
     49 C          60.1173   91.4770    4.3912 C.ar    1  UNL1        0.1450
     50 O          60.3259   90.2441    5.2197 O.2     1  UNL1       -0.4564
     51 C          61.1265   92.1063    3.4772 C.ar    1  UNL1        0.0376
     52 C          62.5258   91.5687    3.4212 C.ar    1  UNL1        0.0237
     53 C          63.5350   92.1980    2.5072 C.ar    1  UNL1        0.0990
     54 N          63.1450   93.3648    1.6492 N.ar    1  UNL1       -0.2423
     55 C          61.7457   93.9025    1.7052 C.ar    1  UNL1        0.0990
     56 C          60.7366   93.2732    2.6192 C.ar    1  UNL1        0.0237
@<TRIPOS>BOND
     1     6     7    2
     2     7     8   am
     3    10     8    1
     4    10    11    1
     5    11    12   ar
     6    12    13   ar
     7    13    14   ar
     8    14    15   ar
     9    15    16   ar
    10    16    17    1
    11    17    18    1
    12    18    19    1
    13    19    20    1
    14     7     5    1
    15     5    22    1
    16    22    23    1
    17    23    24   ar
    18    24    25   ar
    19    25    26   ar
    20    26    27   ar
    21    27    28   ar
    22     5     4    1
    23     4     1    1
    24     1     2    1
    25     1    29    1
    26    29    30    1
    27    30    31    1
    28    31    32    1
    29    32    33    1
    30    33    45    1
    31    45    46    1
    32    46    47   ar
    33    47    48   ar
    34    48    49   ar
    35    49    51    1
    36    51    52   ar
    37    52    53   ar
    38    53    54   ar
    39    54    55   ar
    40    55    56   ar
    41    49    50   ar
    42    33    34    1
    43    34    35    1
    44    35    36    1
    45    36    37    2
    46    36    38   am
    47    38    40    1
    48    40    41    1
    49    41    42    1
    50    41    43    1
    51    41    44    1
    52    19    10    1
    53    28    23   ar
    54    35    30    1
    55    16    11   ar
    56    50    46   ar
    57    56    51   ar
    58     8     9    1
    59    20    21    1
    60     2     3    1
    61    38    39    1
@<TRIPOS>MOLECULE
*****
 56 61 0 0 0
SMALL
GASTEIGER

@<TRIPOS>ATOM
      1 C          62.6414   89.2862   12.5554 C.3     1  UNL1        0.1269
      2 O          62.5642   90.7773   12.4118 O.3     1  UNL1       -0.3830
      3 H          62.6074   91.0143   11.4722 H       1  UNL1        0.2104
      4 C          62.5949   88.6605   13.9179 C.3     1  UNL1        0.0401
      5 C          63.6034   89.0511   14.9573 C.3     1  UNL1        0.0833
      6 O          63.6960   91.5039   15.8088 O.2     1  UNL1       -0.2751
      7 C          64.2258   90.4155   14.9231 C.2     1  UNL1        0.2226
      8 N          65.3781   90.6913   14.0032 N.am    1  UNL1       -0.2999
      9 H          65.7259   89.9769   13.4219 H       1  UNL1        0.1498
     10 C          66.0005   92.0556   13.9690 C.3     1  UNL1        0.1278
     11 C          65.8870   92.9011   12.7352 C.ar    1  UNL1        0.0320
     12 C          65.1511   92.3822   11.5356 C.ar    1  UNL1        0.0004
     13 C          65.0376   93.2277   10.3018 C.ar    1  UNL1       -0.0001
     14 C          65.6600   94.5920   10.2675 C.ar    1  UNL1        0.0031
     15 C          66.3959   95.1108   11.4672 C.ar    1  UNL1        0.0366
     16 C          66.5094   94.2654   12.7010 C.ar    1  UNL1        0.1362
     17 O          67.2454   94.7843   13.9007 O.3     1  UNL1       -0.4730
     18 C          67.3589   93.9388   15.1345 C.3     1  UNL1        0.2364
     19 C          66.7365   92.5745   15.1687 C.3     1  UNL1        0.1762
     20 O          66.8500   91.7290   16.4025 O.3     1  UNL1       -0.3788
     21 H          67.3526   92.2097   17.0787 H       1  UNL1        0.2106
     22 C          63.9895   88.0773   16.0309 C.3     1  UNL1        0.0355
     23 C          63.9882   86.6050   15.7438 C.ar    1  UNL1       -0.0217
     24 C          65.0014   86.0234   14.8030 C.ar    1  UNL1       -0.0043
     25 C          65.0000   84.5511   14.5160 C.ar    1  UNL1       -0.0003
     26 C          63.9856   83.6604   15.1698 C.ar    1  UNL1       -0.0000
     27 C          62.9724   84.2420   16.1106 C.ar    1  UNL1       -0.0003
     28 C          62.9737   85.7143   16.3977 C.ar    1  UNL1       -0.0043
     29 C          62.7650   88.4207   11.3365 C.3     1  UNL1        0.1021
     30 N          61.7768   88.5574   10.2162 N.3     1  UNL1       -0.2621
     31 C          61.0005   89.8304   10.0521 C.3     1  UNL1        0.0901
     32 C          60.0123   89.9670    8.9319 C.3     1  UNL1        0.0900
     33 N          59.8005   88.8307    7.9758 N.3     1  UNL1       -0.2635
     34 C          60.5768   87.5578    8.1400 C.3     1  UNL1        0.0980
     35 C          61.5650   87.4211    9.2602 C.3     1  UNL1        0.1510
     36 C          62.3413   86.1482    9.4244 C.2     1  UNL1        0.2386
     37 O          63.1489   85.6095    8.2809 O.2     1  UNL1       -0.2736
     38 N          62.3100   85.4140   10.7320 N.am    1  UNL1       -0.2961
     39 H          61.7800   85.7676   11.4826 H       1  UNL1        0.1497
     40 C          63.0864   84.1411   10.8962 C.3     1  UNL1        0.1939
     41 C          62.6351   83.1099   11.8877 C.3     1  UNL1        0.4154
     42 F          62.1838   82.0788   12.8792 F       1  UNL1       -0.1682
     43 F          63.1515   82.0229   10.9924 F       1  UNL1       -0.1682
     44 F          62.1187   84.1969   12.7831 F       1  UNL1       -0.1682
     45 C          58.8124   88.9674    6.8556 C.3     1  UNL1        0.1377
     46 C          58.9455   90.0913    5.8710 C.ar    1  UNL1        0.1390
     47 C          57.8500   91.0216    5.4416 C.ar    1  UNL1        0.0375
     48 C          58.4249   91.9874    4.4482 C.ar    1  UNL1        0.0403
     49 C          59.8757   91.6539    4.2637 C.ar    1  UNL1        0.1450
     50 O          60.1974   90.4820    5.1430 O.2     1  UNL1       -0.4564
     51 C          60.8361   92.3670    3.3587 C.ar    1  UNL1        0.0376
     52 C          62.2594   91.9037    3.2610 C.ar    1  UNL1        0.0237
     53 C          63.2198   92.6169    2.3560 C.ar    1  UNL1        0.0990
     54 N          62.7569   93.7933    1.5488 N.ar    1  UNL1       -0.2423
     55 C          61.3336   94.2567    1.6465 C.ar    1  UNL1        0.0990
     56 C          60.3733   93.5435    2.5514 C.ar    1  UNL1        0.0237
@<TRIPOS>BOND
     1     6     7    2
     2     7     8   am
     3    10     8    1
     4    10    11    1
     5    11    12   ar
     6    12    13   ar
     7    13    14   ar
     8    14    15   ar
     9    15    16   ar
    10    16    17    1
    11    17    18    1
    12    18    19    1
    13    19    20    1
    14     7     5    1
    15     5    22    1
    16    22    23    1
    17    23    24   ar
    18    24    25   ar
    19    25    26   ar
    20    26    27   ar
    21    27    28   ar
    22     5     4    1
    23     4     1    1
    24     1     2    1
    25     1    29    1
    26    29    30    1
    27    30    31    1
    28    31    32    1
    29    32    33    1
    30    33    45    1
    31    45    46    1
    32    46    47   ar
    33    47    48   ar
    34    48    49   ar
    35    49    51    1
    36    51    52   ar
    37    52    53   ar
    38    53    54   ar
    39    54    55   ar
    40    55    56   ar
    41    49    50   ar
    42    33    34    1
    43    34    35    1
    44    35    36    1
    45    36    37    2
    46    36    38   am
    47    38    40    1
    48    40    41    1
    49    41    42    1
    50    41    43    1
    51    41    44    1
    52    19    10    1
    53    28    23   ar
    54    35    30    1
    55    16    11   ar
    56    50    46   ar
    57    56    51   ar
    58     8     9    1
    59    20    21    1
    60     2     3    1
    61    38    39    1
@<TRIPOS>MOLECULE
*****
 56 61 0 0 0
SMALL
GASTEIGER

@<TRIPOS>ATOM
      1 C          63.7282   90.6620   11.9028 C.3     1  UNL1        0.1269
      2 O          63.5143   91.8644   11.0319 O.3     1  UNL1       -0.3830
      3 H          62.7339   91.7241   10.4731 H       1  UNL1        0.2104
      4 C          64.8781   90.6281   12.8654 C.3     1  UNL1        0.0401
      5 C          64.6198   90.6394   14.3429 C.3     1  UNL1        0.0833
      6 O          62.4160   89.6772   15.3266 O.2     1  UNL1       -0.2751
      7 C          63.8661   89.5103   14.9812 C.2     1  UNL1        0.2226
      8 N          64.5627   88.2146   15.2741 N.am    1  UNL1       -0.2999
      9 H          65.5144   88.1051   15.0474 H       1  UNL1        0.1498
     10 C          63.8091   87.0856   15.9124 C.3     1  UNL1        0.1278
     11 C          63.8487   85.7167   15.3004 C.ar    1  UNL1        0.0320
     12 C          64.6419   85.4768   14.0501 C.ar    1  UNL1        0.0004
     13 C          64.6815   84.1079   13.4381 C.ar    1  UNL1       -0.0001
     14 C          63.9279   82.9789   14.0764 C.ar    1  UNL1        0.0031
     15 C          63.1347   83.2188   15.3267 C.ar    1  UNL1        0.0366
     16 C          63.0951   84.5877   15.9387 C.ar    1  UNL1        0.1362
     17 O          62.3018   84.8276   17.1890 O.3     1  UNL1       -0.4730
     18 C          62.2622   86.1965   17.8010 C.3     1  UNL1        0.2364
     19 C          63.0158   87.3255   17.1627 C.3     1  UNL1        0.1762
     20 O          62.9762   88.6944   17.7747 O.3     1  UNL1       -0.3788
     21 H          62.4232   88.6765   18.5714 H       1  UNL1        0.2106
     22 C          65.1153   91.7796   15.1823 C.3     1  UNL1        0.0355
     23 C          66.5650   92.1628   15.1463 C.ar    1  UNL1       -0.0217
     24 C          67.4497   91.6488   14.0494 C.ar    1  UNL1       -0.0043
     25 C          68.8995   92.0321   14.0135 C.ar    1  UNL1       -0.0003
     26 C          69.4646   92.9292   15.0745 C.ar    1  UNL1       -0.0000
     27 C          68.5799   93.4432   16.1714 C.ar    1  UNL1       -0.0003
     28 C          67.1302   93.0600   16.2073 C.ar    1  UNL1       -0.0043
     29 C          62.7922   89.4934   11.8111 C.3     1  UNL1        0.1021
     30 N          61.8835   89.3515   10.6261 N.3     1  UNL1       -0.2621
     31 C          61.3664   90.5738    9.9269 C.3     1  UNL1        0.0901
     32 C          60.4577   90.4319    8.7419 C.3     1  UNL1        0.0900
     33 N          60.0661   89.0678    8.2561 N.3     1  UNL1       -0.2635
     34 C          60.5832   87.8457    8.9553 C.3     1  UNL1        0.0980
     35 C          61.4919   87.9875   10.1403 C.3     1  UNL1        0.1510
     36 C          62.0089   86.7653   10.8395 C.2     1  UNL1        0.2386
     37 O          62.6272   86.8853   12.2009 O.2     1  UNL1       -0.2736
     38 N          61.9077   85.4232   10.1773 N.am    1  UNL1       -0.2961
     39 H          61.5019   85.3444    9.2838 H       1  UNL1        0.1497
     40 C          62.4247   84.2010   10.8765 C.3     1  UNL1        0.1939
     41 C          63.5222   83.3891   10.2548 C.3     1  UNL1        0.4154
     42 F          64.6196   82.5773    9.6331 F       1  UNL1       -0.1682
     43 F          63.1591   82.2271   11.1311 F       1  UNL1       -0.1682
     44 F          63.8853   84.5511    9.3785 F       1  UNL1       -0.1682
     45 C          59.1574   88.9260    7.0712 C.3     1  UNL1        0.1377
     46 C          59.1067   90.0060    6.0314 C.ar    1  UNL1        0.1390
     47 C          57.8823   90.7574    5.5997 C.ar    1  UNL1        0.0375
     48 C          58.2902   91.7400    4.5424 C.ar    1  UNL1        0.0403
     49 C          59.7668   91.5959    4.3205 C.ar    1  UNL1        0.1450
     50 O          60.2713   90.5242    5.2408 O.2     1  UNL1       -0.4564
     51 C          60.5936   92.3849    3.3490 C.ar    1  UNL1        0.0376
     52 C          62.0408   92.0462    3.1476 C.ar    1  UNL1        0.0237
     53 C          62.8676   92.8352    2.1761 C.ar    1  UNL1        0.0990
     54 N          62.2471   93.9629    1.4060 N.ar    1  UNL1       -0.2423
     55 C          60.7997   94.3017    1.6073 C.ar    1  UNL1        0.0990
     56 C          59.9730   93.5126    2.5788 C.ar    1  UNL1        0.0237
@<TRIPOS>BOND
     1     6     7    2
     2     7     8   am
     3    10     8    1
     4    10    11    1
     5    11    12   ar
     6    12    13   ar
     7    13    14   ar
     8    14    15   ar
     9    15    16   ar
    10    16    17    1
    11    17    18    1
    12    18    19    1
    13    19    20    1
    14     7     5    1
    15     5    22    1
    16    22    23    1
    17    23    24   ar
    18    24    25   ar
    19    25    26   ar
    20    26    27   ar
    21    27    28   ar
    22     5     4    1
    23     4     1    1
    24     1     2    1
    25     1    29    1
    26    29    30    1
    27    30    31    1
    28    31    32    1
    29    32    33    1
    30    33    45    1
    31    45    46    1
    32    46    47   ar
    33    47    48   ar
    34    48    49   ar
    35    49    51    1
    36    51    52   ar
    37    52    53   ar
    38    53    54   ar
    39    54    55   ar
    40    55    56   ar
    41    49    50   ar
    42    33    34    1
    43    34    35    1
    44    35    36    1
    45    36    37    2
    46    36    38   am
    47    38    40    1
    48    40    41    1
    49    41    42    1
    50    41    43    1
    51    41    44    1
    52    19    10    1
    53    28    23   ar
    54    35    30    1
    55    16    11   ar
    56    50    46   ar
    57    56    51   ar
    58     8     9    1
    59    20    21    1
    60     2     3    1
    61    38    39    1
@<TRIPOS>MOLECULE
*****
 56 61 0 0 0
SMALL
GASTEIGER

@<TRIPOS>ATOM
      1 C          62.1994   86.6646   11.4015 C.3     1  UNL1        0.1269
      2 O          60.8763   86.3528   12.0357 O.3     1  UNL1       -0.3830
      3 H          60.2180   86.1837   11.3437 H       1  UNL1        0.2104
      4 C          63.3911   86.9652   12.2614 C.3     1  UNL1        0.0401
      5 C          63.6506   86.1516   13.4945 C.3     1  UNL1        0.0833
      6 O          61.7318   84.5833   14.2748 O.2     1  UNL1       -0.2751
      7 C          63.0681   84.7750   13.6211 C.2     1  UNL1        0.2226
      8 N          63.8221   83.5903   13.0941 N.am    1  UNL1       -0.2999
      9 H          64.6993   83.7161   12.6650 H       1  UNL1        0.1498
     10 C          63.2398   82.2138   13.2206 C.3     1  UNL1        0.1278
     11 C          63.1471   81.3249   12.0159 C.ar    1  UNL1        0.0320
     12 C          63.6368   81.8125   10.6846 C.ar    1  UNL1        0.0004
     13 C          63.5441   80.9236    9.4799 C.ar    1  UNL1       -0.0001
     14 C          62.9617   79.5472    9.6065 C.ar    1  UNL1        0.0031
     15 C          62.4721   79.0595   10.9378 C.ar    1  UNL1        0.0366
     16 C          62.5648   79.9484   12.1425 C.ar    1  UNL1        0.1362
     17 O          62.0750   79.4607   13.4739 O.3     1  UNL1       -0.4730
     18 C          62.1677   80.3496   14.6786 C.3     1  UNL1        0.2364
     19 C          62.7501   81.7261   14.5519 C.3     1  UNL1        0.1762
     20 O          62.8428   82.6150   15.7566 O.3     1  UNL1       -0.3788
     21 H          62.4854   82.1504   16.5295 H       1  UNL1        0.2106
     22 C          64.4925   86.7144   14.6011 C.3     1  UNL1        0.0355
     23 C          64.1604   88.0537   15.1892 C.ar    1  UNL1       -0.0217
     24 C          64.6504   89.3065   14.5256 C.ar    1  UNL1       -0.0043
     25 C          64.3183   90.6459   15.1138 C.ar    1  UNL1       -0.0003
     26 C          63.4963   90.7324   16.3655 C.ar    1  UNL1       -0.0000
     27 C          63.0063   89.4795   17.0291 C.ar    1  UNL1       -0.0003
     28 C          63.3384   88.1402   16.4409 C.ar    1  UNL1       -0.0043
     29 C          62.3309   86.6756    9.9072 C.3     1  UNL1        0.1021
     30 N          61.3165   87.3973    9.0704 N.3     1  UNL1       -0.2621
     31 C          60.6360   86.6868    7.9381 C.3     1  UNL1        0.0901
     32 C          59.6217   87.4085    7.1013 C.3     1  UNL1        0.0900
     33 N          59.2878   88.8407    7.3969 N.3     1  UNL1       -0.2635
     34 C          59.9682   89.5512    8.5292 C.3     1  UNL1        0.0980
     35 C          60.9826   88.8295    9.3660 C.3     1  UNL1        0.1510
     36 C          61.6630   89.5399   10.4983 C.2     1  UNL1        0.2386
     37 O          61.0628   89.5081   11.8726 O.2     1  UNL1       -0.2736
     38 N          62.9438   90.2823   10.2564 N.am    1  UNL1       -0.2961
     39 H          63.3378   90.3033    9.3544 H       1  UNL1        0.1497
     40 C          63.6243   90.9928   11.3887 C.3     1  UNL1        0.1939
     41 C          64.6207   92.0771   11.1031 C.3     1  UNL1        0.4154
     42 F          65.6170   93.1614   10.8175 F       1  UNL1       -0.1682
     43 F          65.3953   91.6878   12.3272 F       1  UNL1       -0.1682
     44 F          63.8462   92.4664    9.8790 F       1  UNL1       -0.1682
     45 C          58.2734   89.5624    6.5601 C.3     1  UNL1        0.1377
     46 C          58.7205   90.5694    5.5422 C.ar    1  UNL1        0.1390
     47 C          57.8685   91.6407    4.9284 C.ar    1  UNL1        0.0375
     48 C          58.7195   92.4153    3.9662 C.ar    1  UNL1        0.0403
     49 C          60.0974   91.8227    3.9853 C.ar    1  UNL1        0.1450
     50 O          60.0980   90.6819    4.9592 O.2     1  UNL1       -0.4564
     51 C          61.2690   92.2891    3.1730 C.ar    1  UNL1        0.0376
     52 C          62.5865   91.5803    3.2813 C.ar    1  UNL1        0.0237
     53 C          63.7581   92.0467    2.4689 C.ar    1  UNL1        0.0990
     54 N          63.6121   93.2218    1.5483 N.ar    1  UNL1       -0.2423
     55 C          62.2946   93.9307    1.4400 C.ar    1  UNL1        0.0990
     56 C          61.1231   93.4643    2.2523 C.ar    1  UNL1        0.0237
@<TRIPOS>BOND
     1     6     7    2
     2     7     8   am
     3    10     8    1
     4    10    11    1
     5    11    12   ar
     6    12    13   ar
     7    13    14   ar
     8    14    15   ar
     9    15    16   ar
    10    16    17    1
    11    17    18    1
    12    18    19    1
    13    19    20    1
    14     7     5    1
    15     5    22    1
    16    22    23    1
    17    23    24   ar
    18    24    25   ar
    19    25    26   ar
    20    26    27   ar
    21    27    28   ar
    22     5     4    1
    23     4     1    1
    24     1     2    1
    25     1    29    1
    26    29    30    1
    27    30    31    1
    28    31    32    1
    29    32    33    1
    30    33    45    1
    31    45    46    1
    32    46    47   ar
    33    47    48   ar
    34    48    49   ar
    35    49    51    1
    36    51    52   ar
    37    52    53   ar
    38    53    54   ar
    39    54    55   ar
    40    55    56   ar
    41    49    50   ar
    42    33    34    1
    43    34    35    1
    44    35    36    1
    45    36    37    2
    46    36    38   am
    47    38    40    1
    48    40    41    1
    49    41    42    1
    50    41    43    1
    51    41    44    1
    52    19    10    1
    53    28    23   ar
    54    35    30    1
    55    16    11   ar
    56    50    46   ar
    57    56    51   ar
    58     8     9    1
    59    20    21    1
    60     2     3    1
    61    38    39    1
@<TRIPOS>MOLECULE
*****
 56 61 0 0 0
SMALL
GASTEIGER

@<TRIPOS>ATOM
      1 C          62.1730   85.2093    8.5059 C.3     1  UNL1        0.1269
      2 O          62.0373   84.3536    7.2815 O.3     1  UNL1       -0.3830
      3 H          61.1667   84.4998    6.8797 H       1  UNL1        0.2104
      4 C          63.4360   85.1675    9.3140 C.3     1  UNL1        0.0401
      5 C          63.5945   84.1513   10.4059 C.3     1  UNL1        0.0833
      6 O          61.6484   84.6255   12.0604 O.2     1  UNL1       -0.2751
      7 C          63.1150   84.4601   11.7933 C.2     1  UNL1        0.2226
      8 N          64.1023   84.6034   12.9134 N.am    1  UNL1       -0.2999
      9 H          65.0649   84.4948   12.7380 H       1  UNL1        0.1498
     10 C          63.6229   84.9122   14.3008 C.3     1  UNL1        0.1278
     11 C          63.6797   86.3190   14.8182 C.ar    1  UNL1        0.0320
     12 C          64.2159   87.4170   13.9482 C.ar    1  UNL1        0.0004
     13 C          64.2727   88.8238   14.4657 C.ar    1  UNL1       -0.0001
     14 C          63.7933   89.1326   15.8530 C.ar    1  UNL1        0.0031
     15 C          63.2571   88.0346   16.7229 C.ar    1  UNL1        0.0366
     16 C          63.2003   86.6278   16.2055 C.ar    1  UNL1        0.1362
     17 O          62.6641   85.5298   17.0755 O.3     1  UNL1       -0.4730
     18 C          62.6073   84.1230   16.5581 C.3     1  UNL1        0.2364
     19 C          63.0867   83.8142   15.1707 C.3     1  UNL1        0.1762
     20 O          63.0299   82.4074   14.6533 O.3     1  UNL1       -0.3788
     21 H          62.6601   81.8264   15.3363 H       1  UNL1        0.2106
     22 C          64.2325   82.8262   10.1104 C.3     1  UNL1        0.0355
     23 C          63.6005   81.5613   10.6109 C.ar    1  UNL1       -0.0217
     24 C          63.2566   81.4187   12.0639 C.ar    1  UNL1       -0.0043
     25 C          62.6246   80.1537   12.5644 C.ar    1  UNL1       -0.0003
     26 C          62.3365   79.0314   11.6118 C.ar    1  UNL1       -0.0000
     27 C          62.6803   79.1741   10.1587 C.ar    1  UNL1       -0.0003
     28 C          63.3123   80.4390    9.6583 C.ar    1  UNL1       -0.0043
     29 C          61.0456   86.1069    8.9223 C.3     1  UNL1        0.1021
     30 N          61.3369   87.4026    9.6198 N.3     1  UNL1       -0.2621
     31 C          62.2834   87.4318   10.7832 C.3     1  UNL1        0.0901
     32 C          62.5747   88.7274   11.4806 C.3     1  UNL1        0.0900
     33 N          61.9195   89.9939   11.0147 N.3     1  UNL1       -0.2635
     34 C          60.9731   89.9646    9.8514 C.3     1  UNL1        0.0980
     35 C          60.6818   88.6690    9.1539 C.3     1  UNL1        0.1510
     36 C          59.7354   88.6397    7.9906 C.2     1  UNL1        0.2386
     37 O          58.7973   87.4823    7.8158 O.2     1  UNL1       -0.2736
     38 N          59.7269   89.7679    7.0020 N.am    1  UNL1       -0.2961
     39 H          60.3426   90.5275    7.1167 H       1  UNL1        0.1497
     40 C          58.7805   89.7386    5.8387 C.3     1  UNL1        0.1939
     41 C          58.4208   91.0121    5.1322 C.3     1  UNL1        0.4154
     42 F          58.0611   92.2854    4.4258 F       1  UNL1       -0.1682
     43 F          56.9649   90.6816    5.2778 F       1  UNL1       -0.1682
     44 F          59.8766   91.3425    4.9866 F       1  UNL1       -0.1682
     45 C          62.2109   91.2895   11.7122 C.3     1  UNL1        0.1377
     46 C          63.6309   91.7192   11.9338 C.ar    1  UNL1        0.1390
     47 C          64.5691   92.2377   10.8844 C.ar    1  UNL1        0.0375
     48 C          65.8800   92.5448   11.5456 C.ar    1  UNL1        0.0403
     49 C          65.7519   92.2162   13.0037 C.ar    1  UNL1        0.1450
     50 O          64.3619   91.7060   13.2435 O.2     1  UNL1       -0.4564
     51 C          66.8254   92.3708   14.0399 C.ar    1  UNL1        0.0376
     52 C          68.2575   92.1051   13.6815 C.ar    1  UNL1        0.0237
     53 C          69.3310   92.2597   14.7177 C.ar    1  UNL1        0.0990
     54 N          68.9724   92.6798   16.1122 N.ar    1  UNL1       -0.2423
     55 C          67.5402   92.9455   16.4706 C.ar    1  UNL1        0.0990
     56 C          66.4668   92.7909   15.4344 C.ar    1  UNL1        0.0237
@<TRIPOS>BOND
     1     6     7    2
     2     7     8   am
     3    10     8    1
     4    10    11    1
     5    11    12   ar
     6    12    13   ar
     7    13    14   ar
     8    14    15   ar
     9    15    16   ar
    10    16    17    1
    11    17    18    1
    12    18    19    1
    13    19    20    1
    14     7     5    1
    15     5    22    1
    16    22    23    1
    17    23    24   ar
    18    24    25   ar
    19    25    26   ar
    20    26    27   ar
    21    27    28   ar
    22     5     4    1
    23     4     1    1
    24     1     2    1
    25     1    29    1
    26    29    30    1
    27    30    31    1
    28    31    32    1
    29    32    33    1
    30    33    45    1
    31    45    46    1
    32    46    47   ar
    33    47    48   ar
    34    48    49   ar
    35    49    51    1
    36    51    52   ar
    37    52    53   ar
    38    53    54   ar
    39    54    55   ar
    40    55    56   ar
    41    49    50   ar
    42    33    34    1
    43    34    35    1
    44    35    36    1
    45    36    37    2
    46    36    38   am
    47    38    40    1
    48    40    41    1
    49    41    42    1
    50    41    43    1
    51    41    44    1
    52    19    10    1
    53    28    23   ar
    54    35    30    1
    55    16    11   ar
    56    50    46   ar
    57    56    51   ar
    58     8     9    1
    59    20    21    1
    60     2     3    1
    61    38    39    1
@<TRIPOS>MOLECULE
*****
 56 61 0 0 0
SMALL
GASTEIGER

@<TRIPOS>ATOM
      1 C          62.0814   87.0008   11.5907 C.3     1  UNL1        0.1269
      2 O          60.7805   86.4368   12.0799 O.3     1  UNL1       -0.3830
      3 H          60.2331   86.1811   11.3210 H       1  UNL1        0.2104
      4 C          63.1111   87.4733   12.5739 C.3     1  UNL1        0.0401
      5 C          63.8102   86.4859   13.4605 C.3     1  UNL1        0.0833
      6 O          64.9364   84.1551   13.6831 O.2     1  UNL1       -0.2751
      7 C          63.9122   85.0475   13.0470 C.2     1  UNL1        0.2226
      8 N          62.9899   84.5016   11.9976 N.am    1  UNL1       -0.2999
      9 H          62.3176   85.0873   11.5801 H       1  UNL1        0.1498
     10 C          63.0918   83.0634   11.5842 C.3     1  UNL1        0.1278
     11 C          62.5526   81.9861   12.4779 C.ar    1  UNL1        0.0320
     12 C          61.9115   82.3470   13.7850 C.ar    1  UNL1        0.0004
     13 C          61.3722   81.2698   14.6787 C.ar    1  UNL1       -0.0001
     14 C          61.4742   79.8315   14.2653 C.ar    1  UNL1        0.0031
     15 C          62.1153   79.4705   12.9582 C.ar    1  UNL1        0.0366
     16 C          62.6545   80.5478   12.0644 C.ar    1  UNL1        0.1362
     17 O          63.2956   80.1868   10.7573 O.3     1  UNL1       -0.4730
     18 C          63.8348   81.2640    9.8636 C.3     1  UNL1        0.2364
     19 C          63.7329   82.7024   10.2770 C.3     1  UNL1        0.1762
     20 O          64.2721   83.7797    9.3833 O.3     1  UNL1       -0.3788
     21 H          64.6499   83.3785    8.5851 H       1  UNL1        0.2106
     22 C          64.4075   86.9367   14.7605 C.3     1  UNL1        0.0355
     23 C          64.2109   88.3488   15.2264 C.ar    1  UNL1       -0.0217
     24 C          63.3326   88.6332   16.4086 C.ar    1  UNL1       -0.0043
     25 C          63.1361   90.0454   16.8746 C.ar    1  UNL1       -0.0003
     26 C          63.8179   91.1732   16.1583 C.ar    1  UNL1       -0.0000
     27 C          64.6963   90.8889   14.9761 C.ar    1  UNL1       -0.0003
     28 C          64.8928   89.4767   14.5101 C.ar    1  UNL1       -0.0043
     29 C          62.3528   87.0924   10.1182 C.3     1  UNL1        0.1021
     30 N          61.3446   87.7288    9.2080 N.3     1  UNL1       -0.2621
     31 C          60.6720   86.9111    8.1454 C.3     1  UNL1        0.0901
     32 C          59.6638   87.5475    7.2351 C.3     1  UNL1        0.0900
     33 N          59.3281   89.0016    7.3875 N.3     1  UNL1       -0.2635
     34 C          60.0007   89.8191    8.4501 C.3     1  UNL1        0.0980
     35 C          61.0089   89.1827    9.3604 C.3     1  UNL1        0.1510
     36 C          61.6815   90.0003   10.4230 C.2     1  UNL1        0.2386
     37 O          60.9084   90.4448   11.6291 O.2     1  UNL1       -0.2736
     38 N          63.1273   90.3735   10.2794 N.am    1  UNL1       -0.2961
     39 H          63.6347   90.0818    9.4878 H       1  UNL1        0.1497
     40 C          63.7999   91.1911   11.3420 C.3     1  UNL1        0.1939
     41 C          64.7883   92.2523   10.9586 C.3     1  UNL1        0.4154
     42 F          65.7766   93.3135   10.5752 F       1  UNL1       -0.1682
     43 F          65.6474   91.8750   12.1288 F       1  UNL1       -0.1682
     44 F          63.9291   92.6297    9.7884 F       1  UNL1       -0.1682
     45 C          58.3199   89.6379    6.4773 C.3     1  UNL1        0.1377
     46 C          58.7607   90.6470    5.4587 C.ar    1  UNL1        0.1390
     47 C          57.9049   91.7195    4.8524 C.ar    1  UNL1        0.0375
     48 C          58.7499   92.4961    3.8865 C.ar    1  UNL1        0.0403
     49 C          60.1279   91.9035    3.8958 C.ar    1  UNL1        0.1450
     50 O          60.1346   90.7608    4.8674 O.2     1  UNL1       -0.4564
     51 C          61.2944   92.3716    3.0772 C.ar    1  UNL1        0.0376
     52 C          61.1404   93.5432    2.1533 C.ar    1  UNL1        0.0237
     53 C          62.3069   94.0113    1.3347 C.ar    1  UNL1        0.0990
     54 N          63.6274   93.3077    1.4400 N.ar    1  UNL1       -0.2423
     55 C          63.7815   92.1361    2.3639 C.ar    1  UNL1        0.0990
     56 C          62.6150   91.6681    3.1824 C.ar    1  UNL1        0.0237
@<TRIPOS>BOND
     1     6     7    2
     2     7     8   am
     3    10     8    1
     4    10    11    1
     5    11    12   ar
     6    12    13   ar
     7    13    14   ar
     8    14    15   ar
     9    15    16   ar
    10    16    17    1
    11    17    18    1
    12    18    19    1
    13    19    20    1
    14     7     5    1
    15     5    22    1
    16    22    23    1
    17    23    24   ar
    18    24    25   ar
    19    25    26   ar
    20    26    27   ar
    21    27    28   ar
    22     5     4    1
    23     4     1    1
    24     1     2    1
    25     1    29    1
    26    29    30    1
    27    30    31    1
    28    31    32    1
    29    32    33    1
    30    33    45    1
    31    45    46    1
    32    46    47   ar
    33    47    48   ar
    34    48    49   ar
    35    49    51    1
    36    51    52   ar
    37    52    53   ar
    38    53    54   ar
    39    54    55   ar
    40    55    56   ar
    41    49    50   ar
    42    33    34    1
    43    34    35    1
    44    35    36    1
    45    36    37    2
    46    36    38   am
    47    38    40    1
    48    40    41    1
    49    41    42    1
    50    41    43    1
    51    41    44    1
    52    19    10    1
    53    28    23   ar
    54    35    30    1
    55    16    11   ar
    56    50    46   ar
    57    56    51   ar
    58     8     9    1
    59    20    21    1
    60     2     3    1
    61    38    39    1
@<TRIPOS>MOLECULE
*****
 56 61 0 0 0
SMALL
GASTEIGER

@<TRIPOS>ATOM
      1 C          62.8226   87.8472   12.2012 C.3     1  UNL1        0.1269
      2 O          62.2086   88.9866   12.9592 O.3     1  UNL1       -0.3830
      3 H          62.0694   89.7362   12.3595 H       1  UNL1        0.2104
      4 C          63.1393   86.5616   12.9061 C.3     1  UNL1        0.0401
      5 C          64.0072   86.5711   14.1294 C.3     1  UNL1        0.0833
      6 O          63.7920   87.7745   16.4220 O.2     1  UNL1       -0.2751
      7 C          64.1206   87.8158   14.9590 C.2     1  UNL1        0.2226
      8 N          64.5624   89.1016   14.3255 N.am    1  UNL1       -0.2999
      9 H          64.7781   89.1287   13.3653 H       1  UNL1        0.1498
     10 C          64.6758   90.3462   15.1550 C.3     1  UNL1        0.1278
     11 C          65.9048   91.2010   15.0607 C.ar    1  UNL1        0.0320
     12 C          67.0204   90.8113   14.1369 C.ar    1  UNL1        0.0004
     13 C          68.2494   91.6661   14.0427 C.ar    1  UNL1       -0.0001
     14 C          68.3627   92.9107   14.8721 C.ar    1  UNL1        0.0031
     15 C          67.2471   93.3005   15.7959 C.ar    1  UNL1        0.0366
     16 C          66.0181   92.4456   15.8902 C.ar    1  UNL1        0.1362
     17 O          64.9024   92.8355   16.8140 O.3     1  UNL1       -0.4730
     18 C          63.6734   91.9807   16.9083 C.3     1  UNL1        0.2364
     19 C          63.5601   90.7360   16.0787 C.3     1  UNL1        0.1762
     20 O          62.3312   89.8812   16.1730 O.3     1  UNL1       -0.3788
     21 H          61.7134   90.2722   16.8105 H       1  UNL1        0.2106
     22 C          64.7618   85.3360   14.5233 C.3     1  UNL1        0.0355
     23 C          64.1049   83.9914   14.4217 C.ar    1  UNL1       -0.0217
     24 C          62.6751   83.8215   14.8422 C.ar    1  UNL1       -0.0043
     25 C          62.0182   82.4768   14.7406 C.ar    1  UNL1       -0.0003
     26 C          62.7910   81.3021   14.2185 C.ar    1  UNL1       -0.0000
     27 C          64.2208   81.4719   13.7980 C.ar    1  UNL1       -0.0003
     28 C          64.8777   82.8166   13.8996 C.ar    1  UNL1       -0.0043
     29 C          63.1200   87.9934   10.7382 C.3     1  UNL1        0.1021
     30 N          62.0056   88.2559    9.7690 N.3     1  UNL1       -0.2621
     31 C          61.2599   89.5565    9.8179 C.3     1  UNL1        0.0901
     32 C          60.1455   89.8189    8.8487 C.3     1  UNL1        0.0900
     33 N          59.7770   88.7808    7.8305 N.3     1  UNL1       -0.2635
     34 C          60.5228   87.4803    7.7816 C.3     1  UNL1        0.0980
     35 C          61.6371   87.2178    8.7509 C.3     1  UNL1        0.1510
     36 C          62.3829   85.9173    8.7020 C.2     1  UNL1        0.2386
     37 O          62.7189   85.2947    7.3793 O.2     1  UNL1       -0.2736
     38 N          62.7926   85.2393    9.9758 N.am    1  UNL1       -0.2961
     39 H          62.5720   85.6479   10.8439 H       1  UNL1        0.1497
     40 C          63.5383   83.9388    9.9269 C.3     1  UNL1        0.1939
     41 C          63.0272   82.7520   10.6888 C.3     1  UNL1        0.4154
     42 F          62.5161   81.5653   11.4507 F       1  UNL1       -0.1682
     43 F          64.0109   81.8713    9.9770 F       1  UNL1       -0.1682
     44 F          62.0436   83.6327   11.4007 F       1  UNL1       -0.1682
     45 C          58.6627   89.0433    6.8613 C.3     1  UNL1        0.1377
     46 C          58.7901   90.1464    5.8528 C.ar    1  UNL1        0.1390
     47 C          57.6784   91.0268    5.3639 C.ar    1  UNL1        0.0375
     48 C          58.2528   91.9873    4.3651 C.ar    1  UNL1        0.0403
     49 C          59.7195   91.7004    4.2367 C.ar    1  UNL1        0.1450
     50 O          60.0516   90.5627    5.1561 O.2     1  UNL1       -0.4564
     51 C          60.6847   92.4242    3.3453 C.ar    1  UNL1        0.0376
     52 C          60.2283   93.6155    2.5563 C.ar    1  UNL1        0.0237
     53 C          61.1935   94.3392    1.6649 C.ar    1  UNL1        0.0990
     54 N          62.6150   93.8717    1.5625 N.ar    1  UNL1       -0.2423
     55 C          63.0715   92.6804    2.3515 C.ar    1  UNL1        0.0990
     56 C          62.1063   91.9567    3.2428 C.ar    1  UNL1        0.0237
@<TRIPOS>BOND
     1     6     7    2
     2     7     8   am
     3    10     8    1
     4    10    11    1
     5    11    12   ar
     6    12    13   ar
     7    13    14   ar
     8    14    15   ar
     9    15    16   ar
    10    16    17    1
    11    17    18    1
    12    18    19    1
    13    19    20    1
    14     7     5    1
    15     5    22    1
    16    22    23    1
    17    23    24   ar
    18    24    25   ar
    19    25    26   ar
    20    26    27   ar
    21    27    28   ar
    22     5     4    1
    23     4     1    1
    24     1     2    1
    25     1    29    1
    26    29    30    1
    27    30    31    1
    28    31    32    1
    29    32    33    1
    30    33    45    1
    31    45    46    1
    32    46    47   ar
    33    47    48   ar
    34    48    49   ar
    35    49    51    1
    36    51    52   ar
    37    52    53   ar
    38    53    54   ar
    39    54    55   ar
    40    55    56   ar
    41    49    50   ar
    42    33    34    1
    43    34    35    1
    44    35    36    1
    45    36    37    2
    46    36    38   am
    47    38    40    1
    48    40    41    1
    49    41    42    1
    50    41    43    1
    51    41    44    1
    52    19    10    1
    53    28    23   ar
    54    35    30    1
    55    16    11   ar
    56    50    46   ar
    57    56    51   ar
    58     8     9    1
    59    20    21    1
    60     2     3    1
    61    38    39    1
@<TRIPOS>MOLECULE
*****
 56 61 0 0 0
SMALL
GASTEIGER

@<TRIPOS>ATOM
      1 C          63.9748   89.7716   14.6761 C.3     1  UNL1        0.1269
      2 O          63.9135   89.2674   16.0874 O.3     1  UNL1       -0.3830
      3 H          64.0421   88.3060   16.0932 H       1  UNL1        0.2104
      4 C          63.8040   91.2350   14.3944 C.3     1  UNL1        0.0401
      5 C          65.0089   92.1168   14.2511 C.3     1  UNL1        0.0833
      6 O          64.8716   92.0639   11.6571 O.2     1  UNL1       -0.2751
      7 C          65.3399   92.7241   12.9200 C.2     1  UNL1        0.2226
      8 N          66.1391   93.9916   12.8518 N.am    1  UNL1       -0.2999
      9 H          66.4465   94.4249   13.6807 H       1  UNL1        0.1498
     10 C          66.4700   94.5990   11.5208 C.3     1  UNL1        0.1278
     11 C          67.2248   93.8011   10.4992 C.ar    1  UNL1        0.0320
     12 C          67.6486   92.3959   10.8085 C.ar    1  UNL1        0.0004
     13 C          68.4034   91.5980    9.7869 C.ar    1  UNL1       -0.0001
     14 C          68.7343   92.2053    8.4559 C.ar    1  UNL1        0.0031
     15 C          68.3105   93.6105    8.1465 C.ar    1  UNL1        0.0366
     16 C          67.5557   94.4084    9.1682 C.ar    1  UNL1        0.1362
     17 O          67.1319   95.8136    8.8587 O.3     1  UNL1       -0.4730
     18 C          66.3772   96.6115    9.8804 C.3     1  UNL1        0.2364
     19 C          66.0462   96.0041   11.2114 C.3     1  UNL1        0.1762
     20 O          65.2915   96.8020   12.2330 O.3     1  UNL1       -0.3788
     21 H          65.0961   97.6824   11.8758 H       1  UNL1        0.2106
     22 C          65.8829   92.3914   15.4388 C.3     1  UNL1        0.0355
     23 C          67.3550   92.6105   15.2521 C.ar    1  UNL1       -0.0217
     24 C          68.1246   91.7545   14.2903 C.ar    1  UNL1       -0.0043
     25 C          69.5968   91.9736   14.1036 C.ar    1  UNL1       -0.0003
     26 C          70.2993   93.0487   14.8787 C.ar    1  UNL1       -0.0000
     27 C          69.5297   93.9047   15.8404 C.ar    1  UNL1       -0.0003
     28 C          68.0576   93.6856   16.0271 C.ar    1  UNL1       -0.0043
     29 C          64.2070   88.8125   13.5464 C.3     1  UNL1        0.1021
     30 N          63.0609   88.3841   12.6787 N.3     1  UNL1       -0.2621
     31 C          62.2877   89.4059   11.8989 C.3     1  UNL1        0.0901
     32 C          61.1416   88.9775   11.0312 C.3     1  UNL1        0.0900
     33 N          60.7686   87.5272   10.9435 N.3     1  UNL1       -0.2635
     34 C          61.5417   86.5055   11.7233 C.3     1  UNL1        0.0980
     35 C          62.6878   86.9339   12.5909 C.3     1  UNL1        0.1510
     36 C          63.4610   85.9121   13.3708 C.2     1  UNL1        0.2386
     37 O          63.9091   86.2176   14.7693 O.2     1  UNL1       -0.2736
     38 N          63.7860   84.5848   12.7521 N.am    1  UNL1       -0.2961
     39 H          63.4918   84.3843   11.8342 H       1  UNL1        0.1497
     40 C          64.5591   83.5630   13.5320 C.3     1  UNL1        0.1939
     41 C          63.9377   82.2356   13.8515 C.3     1  UNL1        0.4154
     42 F          63.3163   80.9083   14.1709 F       1  UNL1       -0.1682
     43 F          63.2418   82.8455   15.0320 F       1  UNL1       -0.1682
     44 F          64.6335   81.6257   12.6709 F       1  UNL1       -0.1682
     45 C          59.6224   87.0988   10.0758 C.3     1  UNL1        0.1377
     46 C          59.5459   87.5626    8.6513 C.ar    1  UNL1        0.1390
     47 C          59.6200   86.6888    7.4344 C.ar    1  UNL1        0.0375
     48 C          59.5017   87.5677    6.2247 C.ar    1  UNL1        0.0403
     49 C          59.3544   88.9848    6.6940 C.ar    1  UNL1        0.1450
     50 O          59.3817   88.9816    8.1937 O.2     1  UNL1       -0.4564
     51 C          59.2060   90.1929    5.8174 C.ar    1  UNL1        0.0376
     52 C          60.4175   90.8220    5.1958 C.ar    1  UNL1        0.0237
     53 C          60.2690   92.0302    4.3192 C.ar    1  UNL1        0.0990
     54 N          58.9090   92.6091    4.0643 N.ar    1  UNL1       -0.2423
     55 C          57.6974   91.9801    4.6859 C.ar    1  UNL1        0.0990
     56 C          57.8459   90.7720    5.5624 C.ar    1  UNL1        0.0237
@<TRIPOS>BOND
     1     6     7    2
     2     7     8   am
     3    10     8    1
     4    10    11    1
     5    11    12   ar
     6    12    13   ar
     7    13    14   ar
     8    14    15   ar
     9    15    16   ar
    10    16    17    1
    11    17    18    1
    12    18    19    1
    13    19    20    1
    14     7     5    1
    15     5    22    1
    16    22    23    1
    17    23    24   ar
    18    24    25   ar
    19    25    26   ar
    20    26    27   ar
    21    27    28   ar
    22     5     4    1
    23     4     1    1
    24     1     2    1
    25     1    29    1
    26    29    30    1
    27    30    31    1
    28    31    32    1
    29    32    33    1
    30    33    45    1
    31    45    46    1
    32    46    47   ar
    33    47    48   ar
    34    48    49   ar
    35    49    51    1
    36    51    52   ar
    37    52    53   ar
    38    53    54   ar
    39    54    55   ar
    40    55    56   ar
    41    49    50   ar
    42    33    34    1
    43    34    35    1
    44    35    36    1
    45    36    37    2
    46    36    38   am
    47    38    40    1
    48    40    41    1
    49    41    42    1
    50    41    43    1
    51    41    44    1
    52    19    10    1
    53    28    23   ar
    54    35    30    1
    55    16    11   ar
    56    50    46   ar
    57    56    51   ar
    58     8     9    1
    59    20    21    1
    60     2     3    1
    61    38    39    1
