@<TRIPOS>MOLECULE
*****
 27 29 0 0 0
SMALL
GASTEIGER

@<TRIPOS>ATOM
      1 C          64.0055   87.6392   14.1815 C.2     1  UNL1        0.2252
      2 O          63.3941   87.5804   12.8131 O.2     1  UNL1       -0.2750
      3 N          64.0458   88.9387   14.9298 N.am    1  UNL1       -0.3004
      4 H          64.4471   88.9773   15.8279 H       1  UNL1        0.1497
      5 C          64.5767   86.3986   14.8018 C.3     1  UNL1        0.1154
      6 C          63.5339   86.0341   16.4780 C.3     1  UNL1        0.0335
      7 C          63.6694   85.2704   15.1941 C.3     1  UNL1        0.1377
      8 C          63.9947   84.7425   13.8283 C.3     1  UNL1        0.0613
      9 C          63.2600   83.4475   13.6447 C.3     1  UNL1        0.1290
     10 C          62.4688   82.1738   13.6061 C.3     1  UNL1        0.0305
     11 C          62.5068   81.3040   12.3847 C.3     1  UNL1        0.0025
     12 C          63.3360   81.7080   11.2018 C.3     1  UNL1        0.0002
     13 C          64.1273   82.9817   11.2404 C.3     1  UNL1        0.0025
     14 C          64.0893   83.8515   12.4618 C.3     1  UNL1        0.0305
     15 O          62.4808   83.1751   14.8972 O.3     1  UNL1       -0.2256
     16 O          62.7338   84.3017   15.8548 O.3     1  UNL1       -0.2251
     17 C          63.4747   90.1793   14.3094 C.3     1  UNL1        0.1163
     18 C          64.2947   90.9795   13.3414 C.ar    1  UNL1       -0.0026
     19 C          63.8181   91.1685   11.9317 C.ar    1  UNL1       -0.0029
     20 C          64.6382   91.9687   10.9637 C.ar    1  UNL1       -0.0046
     21 C          65.9348   92.5801   11.4053 C.ar    1  UNL1       -0.0228
     22 C          66.4113   92.3912   12.8149 C.ar    1  UNL1       -0.0046
     23 C          65.5913   91.5909   13.7830 C.ar    1  UNL1       -0.0029
     24 C          66.7548   93.3804   10.4372 C.3     1  UNL1        0.0189
     25 C          65.8304   94.5476   10.6190 C.3     1  UNL1        0.0044
     26 C          67.6792   92.2132   10.2554 C.3     1  UNL1        0.0044
     27 C          67.5748   94.1806    9.4691 C.3     1  UNL1        0.0044
@<TRIPOS>BOND
     1     6     7    1
     2     7     5    1
     3     5     1    1
     4     1     2    2
     5     1     3   am
     6     3    17    1
     7    17    18    1
     8    18    19   ar
     9    19    20   ar
    10    20    21   ar
    11    21    24    1
    12    24    25    1
    13    24    26    1
    14    24    27    1
    15    21    22   ar
    16    22    23   ar
    17     7     8    1
    18     8     9    1
    19     9    10    1
    20    10    11    1
    21    11    12    1
    22    12    13    1
    23    13    14    1
    24     9    15    1
    25    15    16    1
    26    16     7    1
    27    23    18   ar
    28    14     9    1
    29     3     4    1
@<TRIPOS>MOLECULE
*****
 27 29 0 0 0
SMALL
GASTEIGER

@<TRIPOS>ATOM
      1 C          60.9560   89.0918   10.9025 C.2     1  UNL1        0.2252
      2 O          60.0141   90.1167   11.4610 O.2     1  UNL1       -0.2750
      3 N          62.3617   89.4785   10.5492 N.am    1  UNL1       -0.3004
      4 H          62.9800   88.8057   10.1826 H       1  UNL1        0.1497
      5 C          60.4924   87.6800   10.6971 C.3     1  UNL1        0.1154
      6 C          60.3722   87.6681    8.6933 C.3     1  UNL1        0.0335
      7 C          61.1470   86.8195    9.6574 C.3     1  UNL1        0.1377
      8 C          61.7850   86.1508   10.8389 C.3     1  UNL1        0.0613
      9 C          62.6720   85.0543   10.3278 C.3     1  UNL1        0.1290
     10 C          63.5141   84.0002    9.6724 C.3     1  UNL1        0.0305
     11 C          64.3449   83.0751   10.5114 C.3     1  UNL1        0.0025
     12 C          64.3337   83.2042   12.0058 C.3     1  UNL1        0.0002
     13 C          63.4916   84.2584   12.6612 C.3     1  UNL1        0.0025
     14 C          62.6608   85.1834   11.8222 C.3     1  UNL1        0.0305
     15 O          62.5822   85.0454    8.8305 O.3     1  UNL1       -0.2256
     16 O          61.6397   86.1364    8.4162 O.3     1  UNL1       -0.2251
     17 C          62.8253   90.8902   10.7546 C.3     1  UNL1        0.1163
     18 C          63.8514   91.1973   11.8047 C.ar    1  UNL1       -0.0026
     19 C          63.8234   90.4698   13.1162 C.ar    1  UNL1       -0.0029
     20 C          64.8495   90.7770   14.1663 C.ar    1  UNL1       -0.0046
     21 C          65.9036   91.8117   13.9050 C.ar    1  UNL1       -0.0228
     22 C          65.9316   92.5391   12.5936 C.ar    1  UNL1       -0.0046
     23 C          64.9055   92.2320   11.5434 C.ar    1  UNL1       -0.0029
     24 C          66.9297   92.1188   14.9552 C.3     1  UNL1        0.0189
     25 C          68.0238   91.8479   13.9655 C.3     1  UNL1        0.0044
     26 C          65.8356   92.3897   15.9449 C.3     1  UNL1        0.0044
     27 C          67.9558   92.4259   16.0053 C.3     1  UNL1        0.0044
@<TRIPOS>BOND
     1     6     7    1
     2     7     5    1
     3     5     1    1
     4     1     2    2
     5     1     3   am
     6     3    17    1
     7    17    18    1
     8    18    19   ar
     9    19    20   ar
    10    20    21   ar
    11    21    24    1
    12    24    25    1
    13    24    26    1
    14    24    27    1
    15    21    22   ar
    16    22    23   ar
    17     7     8    1
    18     8     9    1
    19     9    10    1
    20    10    11    1
    21    11    12    1
    22    12    13    1
    23    13    14    1
    24     9    15    1
    25    15    16    1
    26    16     7    1
    27    23    18   ar
    28    14     9    1
    29     3     4    1
@<TRIPOS>MOLECULE
*****
 27 29 0 0 0
SMALL
GASTEIGER

@<TRIPOS>ATOM
      1 C          63.5457   90.3839   13.2952 C.2     1  UNL1        0.2252
      2 O          64.1324   91.0797   12.1030 O.2     1  UNL1       -0.2750
      3 N          62.1462   89.8469   13.2367 N.am    1  UNL1       -0.3004
      4 H          61.7611   89.3902   14.0192 H       1  UNL1        0.1497
      5 C          64.3583   90.2248   14.5460 C.3     1  UNL1        0.1154
      6 C          63.6043   90.8721   16.2902 C.3     1  UNL1        0.0335
      7 C          63.7857   89.4947   15.7245 C.3     1  UNL1        0.1377
      8 C          64.0868   88.2700   14.9124 C.3     1  UNL1        0.0613
      9 C          63.6623   87.0708   15.7073 C.3     1  UNL1        0.1290
     10 C          63.1927   85.9721   16.6141 C.3     1  UNL1        0.0305
     11 C          63.3109   84.5407   16.1816 C.3     1  UNL1        0.0025
     12 C          63.8987   84.2080   14.8423 C.3     1  UNL1        0.0002
     13 C          64.3684   85.3067   13.9355 C.3     1  UNL1        0.0025
     14 C          64.2502   86.7381   14.3680 C.3     1  UNL1        0.0305
     15 O          63.0989   87.5544   17.0107 O.3     1  UNL1       -0.2256
     16 O          63.1751   89.0525   17.0214 O.3     1  UNL1       -0.2251
     17 C          61.3336   90.0059   11.9859 C.3     1  UNL1        0.1163
     18 C          61.3481   88.9305   10.9404 C.ar    1  UNL1       -0.0026
     19 C          62.2614   87.7501   11.0911 C.ar    1  UNL1       -0.0029
     20 C          62.2758   86.6747   10.0456 C.ar    1  UNL1       -0.0046
     21 C          61.3769   86.7795    8.8493 C.ar    1  UNL1       -0.0228
     22 C          60.4637   87.9598    8.6986 C.ar    1  UNL1       -0.0046
     23 C          60.4492   89.0353    9.7441 C.ar    1  UNL1       -0.0029
     24 C          61.3914   85.7040    7.8038 C.3     1  UNL1        0.0189
     25 C          62.8215   85.3985    8.1377 C.3     1  UNL1        0.0044
     26 C          59.9613   86.0094    7.4699 C.3     1  UNL1        0.0044
     27 C          61.4058   84.6285    6.7583 C.3     1  UNL1        0.0044
@<TRIPOS>BOND
     1     6     7    1
     2     7     5    1
     3     5     1    1
     4     1     2    2
     5     1     3   am
     6     3    17    1
     7    17    18    1
     8    18    19   ar
     9    19    20   ar
    10    20    21   ar
    11    21    24    1
    12    24    25    1
    13    24    26    1
    14    24    27    1
    15    21    22   ar
    16    22    23   ar
    17     7     8    1
    18     8     9    1
    19     9    10    1
    20    10    11    1
    21    11    12    1
    22    12    13    1
    23    13    14    1
    24     9    15    1
    25    15    16    1
    26    16     7    1
    27    23    18   ar
    28    14     9    1
    29     3     4    1
@<TRIPOS>MOLECULE
*****
 27 29 0 0 0
SMALL
GASTEIGER

@<TRIPOS>ATOM
      1 C          65.1157   92.0928   13.8228 C.2     1  UNL1        0.2252
      2 O          64.8993   91.6883   15.2508 O.2     1  UNL1       -0.2750
      3 N          64.3020   91.4606   12.7326 N.am    1  UNL1       -0.3004
      4 H          64.4441   91.7261   11.7952 H       1  UNL1        0.1497
      5 C          66.1458   93.1296   13.4847 C.3     1  UNL1        0.1154
      6 C          67.5865   91.7859   13.0991 C.3     1  UNL1        0.0335
      7 C          67.0454   92.9346   12.3005 C.3     1  UNL1        0.1377
      8 C          66.3163   94.1240   11.7494 C.3     1  UNL1        0.0613
      9 C          66.8784   94.4241   10.3914 C.3     1  UNL1        0.1290
     10 C          67.5366   94.6019    9.0554 C.3     1  UNL1        0.0305
     11 C          67.0990   95.7111    8.1454 C.3     1  UNL1        0.0025
     12 C          66.0032   96.6426    8.5715 C.3     1  UNL1        0.0002
     13 C          65.3449   96.4647    9.9076 C.3     1  UNL1        0.0025
     14 C          65.7825   95.3555   10.8175 C.3     1  UNL1        0.0305
     15 O          67.9550   93.4201   10.1032 O.3     1  UNL1       -0.2256
     16 O          68.0582   92.4995   11.2831 O.3     1  UNL1       -0.2251
     17 C          63.2720   90.4239   13.0706 C.3     1  UNL1        0.1163
     18 C          62.7176   89.5386   11.9941 C.ar    1  UNL1       -0.0026
     19 C          62.9078   88.0528   12.0732 C.ar    1  UNL1       -0.0029
     20 C          62.3534   87.1674   10.9967 C.ar    1  UNL1       -0.0046
     21 C          61.6089   87.7679    9.8412 C.ar    1  UNL1       -0.0228
     22 C          61.4188   89.2536    9.7622 C.ar    1  UNL1       -0.0046
     23 C          61.9732   90.1390   10.8386 C.ar    1  UNL1       -0.0029
     24 C          61.0545   86.8824    8.7647 C.3     1  UNL1        0.0189
     25 C          62.2535   85.9887    8.8823 C.3     1  UNL1        0.0044
     26 C          59.8556   87.7761    8.6471 C.3     1  UNL1        0.0044
     27 C          60.5002   85.9970    7.6883 C.3     1  UNL1        0.0044
@<TRIPOS>BOND
     1     6     7    1
     2     7     5    1
     3     5     1    1
     4     1     2    2
     5     1     3   am
     6     3    17    1
     7    17    18    1
     8    18    19   ar
     9    19    20   ar
    10    20    21   ar
    11    21    24    1
    12    24    25    1
    13    24    26    1
    14    24    27    1
    15    21    22   ar
    16    22    23   ar
    17     7     8    1
    18     8     9    1
    19     9    10    1
    20    10    11    1
    21    11    12    1
    22    12    13    1
    23    13    14    1
    24     9    15    1
    25    15    16    1
    26    16     7    1
    27    23    18   ar
    28    14     9    1
    29     3     4    1
@<TRIPOS>MOLECULE
*****
 27 29 0 0 0
SMALL
GASTEIGER

@<TRIPOS>ATOM
      1 C          61.1759   87.8529    9.7261 C.2     1  UNL1        0.2252
      2 O          60.4069   88.6535    8.7174 O.2     1  UNL1       -0.2750
      3 N          62.1514   88.5348   10.6390 N.am    1  UNL1       -0.3004
      4 H          62.6561   88.0093   11.3011 H       1  UNL1        0.1497
      5 C          60.9694   86.3702    9.8220 C.3     1  UNL1        0.1154
      6 C          61.7579   85.9475    8.0250 C.3     1  UNL1        0.0335
      7 C          62.0613   85.4321    9.4006 C.3     1  UNL1        0.1377
      8 C          62.1364   85.1129   10.8643 C.3     1  UNL1        0.0613
      9 C          63.2115   84.0852   11.0601 C.3     1  UNL1        0.1290
     10 C          64.3088   83.0634   11.1005 C.3     1  UNL1        0.0305
     11 C          64.7220   82.4579   12.4091 C.3     1  UNL1        0.0025
     12 C          64.0378   82.8743   13.6774 C.3     1  UNL1        0.0002
     13 C          62.9405   83.8961   13.6370 C.3     1  UNL1        0.0025
     14 C          62.5273   84.5015   12.3284 C.3     1  UNL1        0.0305
     15 O          63.8007   83.7693    9.7173 O.3     1  UNL1       -0.2256
     16 O          63.0899   84.6018    8.6917 O.3     1  UNL1       -0.2251
     17 C          62.3579   90.0174   10.5431 C.3     1  UNL1        0.1163
     18 C          63.3888   90.6882   11.4017 C.ar    1  UNL1       -0.0026
     19 C          64.2538   91.7708   10.8276 C.ar    1  UNL1       -0.0029
     20 C          65.2847   92.4416   11.6863 C.ar    1  UNL1       -0.0046
     21 C          65.4506   92.0297   13.1190 C.ar    1  UNL1       -0.0228
     22 C          64.5856   90.9472   13.6931 C.ar    1  UNL1       -0.0046
     23 C          63.5546   90.2763   12.8345 C.ar    1  UNL1       -0.0029
     24 C          66.4815   92.7006   13.9777 C.3     1  UNL1        0.0189
     25 C          66.4005   93.9266   13.1173 C.3     1  UNL1        0.0044
     26 C          66.5626   91.4746   14.8381 C.3     1  UNL1        0.0044
     27 C          67.5125   93.3713   14.8363 C.3     1  UNL1        0.0044
@<TRIPOS>BOND
     1     6     7    1
     2     7     5    1
     3     5     1    1
     4     1     2    2
     5     1     3   am
     6     3    17    1
     7    17    18    1
     8    18    19   ar
     9    19    20   ar
    10    20    21   ar
    11    21    24    1
    12    24    25    1
    13    24    26    1
    14    24    27    1
    15    21    22   ar
    16    22    23   ar
    17     7     8    1
    18     8     9    1
    19     9    10    1
    20    10    11    1
    21    11    12    1
    22    12    13    1
    23    13    14    1
    24     9    15    1
    25    15    16    1
    26    16     7    1
    27    23    18   ar
    28    14     9    1
    29     3     4    1
@<TRIPOS>MOLECULE
*****
 27 29 0 0 0
SMALL
GASTEIGER

@<TRIPOS>ATOM
      1 C          63.6818   89.4028   15.2205 C.2     1  UNL1        0.2252
      2 O          62.7362   89.1170   16.3492 O.2     1  UNL1       -0.2750
      3 N          64.4825   88.2894   14.6127 N.am    1  UNL1       -0.3004
      4 H          65.1031   88.4770   13.8718 H       1  UNL1        0.1497
      5 C          63.8268   90.8020   14.6995 C.3     1  UNL1        0.1154
      6 C          65.3880   91.6513   13.7664 C.3     1  UNL1        0.0335
      7 C          64.1229   91.0346   13.2476 C.3     1  UNL1        0.1377
      8 C          62.7959   90.3693   13.0324 C.3     1  UNL1        0.0613
      9 C          62.5363   90.3196   11.5558 C.3     1  UNL1        0.1290
     10 C          62.4152   90.3417   10.0609 C.3     1  UNL1        0.0305
     11 C          61.2021   89.7596    9.3980 C.3     1  UNL1        0.0025
     12 C          60.1100   89.1555   10.2301 C.3     1  UNL1        0.0002
     13 C          60.2311   89.1334   11.7250 C.3     1  UNL1        0.0025
     14 C          61.4442   89.7155   12.3878 C.3     1  UNL1        0.0305
     15 O          63.7029   90.9543   10.8585 O.3     1  UNL1       -0.2256
     16 O          64.6836   91.3962   11.9041 O.3     1  UNL1       -0.2251
     17 C          64.3375   86.8903   15.1337 C.3     1  UNL1        0.1163
     18 C          64.1077   85.7551   14.1805 C.ar    1  UNL1       -0.0026
     19 C          63.2384   85.9529   12.9742 C.ar    1  UNL1       -0.0029
     20 C          63.0087   84.8178   12.0210 C.ar    1  UNL1       -0.0046
     21 C          63.6482   83.4848   12.2742 C.ar    1  UNL1       -0.0228
     22 C          64.5175   83.2869   13.4804 C.ar    1  UNL1       -0.0046
     23 C          64.7473   84.4222   14.4336 C.ar    1  UNL1       -0.0029
     24 C          63.4184   82.3496   11.3209 C.3     1  UNL1        0.0189
     25 C          64.1856   83.0837   10.2615 C.3     1  UNL1        0.0044
     26 C          62.6512   81.6154   12.3803 C.3     1  UNL1        0.0044
     27 C          63.1886   81.2144   10.3677 C.3     1  UNL1        0.0044
@<TRIPOS>BOND
     1     6     7    1
     2     7     5    1
     3     5     1    1
     4     1     2    2
     5     1     3   am
     6     3    17    1
     7    17    18    1
     8    18    19   ar
     9    19    20   ar
    10    20    21   ar
    11    21    24    1
    12    24    25    1
    13    24    26    1
    14    24    27    1
    15    21    22   ar
    16    22    23   ar
    17     7     8    1
    18     8     9    1
    19     9    10    1
    20    10    11    1
    21    11    12    1
    22    12    13    1
    23    13    14    1
    24     9    15    1
    25    15    16    1
    26    16     7    1
    27    23    18   ar
    28    14     9    1
    29     3     4    1
@<TRIPOS>MOLECULE
*****
 27 29 0 0 0
SMALL
GASTEIGER

@<TRIPOS>ATOM
      1 C          63.1630   89.5730   13.9163 C.2     1  UNL1        0.2252
      2 O          62.5160   89.6860   15.2647 O.2     1  UNL1       -0.2750
      3 N          64.0074   88.3776   13.5873 N.am    1  UNL1       -0.3004
      4 H          64.4321   88.3035   12.7022 H       1  UNL1        0.1497
      5 C          62.9657   90.6554   12.8966 C.3     1  UNL1        0.1154
      6 C          63.4835   91.0137   10.9905 C.3     1  UNL1        0.0335
      7 C          64.1544   91.3413   12.2915 C.3     1  UNL1        0.1377
      8 C          64.5768   91.5256   13.7189 C.3     1  UNL1        0.0613
      9 C          65.8865   92.2570   13.7241 C.3     1  UNL1        0.1290
     10 C          67.1870   92.9889   13.5725 C.3     1  UNL1        0.0305
     11 C          67.9718   93.3832   14.7884 C.3     1  UNL1        0.0025
     12 C          67.4562   93.0456   16.1559 C.3     1  UNL1        0.0002
     13 C          66.1557   92.3137   16.3075 C.3     1  UNL1        0.0025
     14 C          65.3709   91.9194   15.0916 C.3     1  UNL1        0.0305
     15 O          66.2735   92.5248   12.2998 O.3     1  UNL1       -0.2256
     16 O          65.2030   91.9589   11.4143 O.3     1  UNL1       -0.2251
     17 C          64.2048   87.2953   14.6069 C.3     1  UNL1        0.1163
     18 C          63.8597   85.8751   14.2695 C.ar    1  UNL1       -0.0026
     19 C          64.1270   84.7823   15.2616 C.ar    1  UNL1       -0.0029
     20 C          63.7819   83.3621   14.9242 C.ar    1  UNL1       -0.0046
     21 C          63.1695   83.0347   13.5946 C.ar    1  UNL1       -0.0228
     22 C          62.9022   84.1274   12.6025 C.ar    1  UNL1       -0.0046
     23 C          63.2473   85.5477   12.9399 C.ar    1  UNL1       -0.0029
     24 C          62.8244   81.6144   13.2572 C.3     1  UNL1        0.0189
     25 C          61.7489   81.6272   14.3028 C.3     1  UNL1        0.0044
     26 C          63.8999   81.6015   12.2117 C.3     1  UNL1        0.0044
     27 C          62.4794   80.1941   12.9198 C.3     1  UNL1        0.0044
@<TRIPOS>BOND
     1     6     7    1
     2     7     5    1
     3     5     1    1
     4     1     2    2
     5     1     3   am
     6     3    17    1
     7    17    18    1
     8    18    19   ar
     9    19    20   ar
    10    20    21   ar
    11    21    24    1
    12    24    25    1
    13    24    26    1
    14    24    27    1
    15    21    22   ar
    16    22    23   ar
    17     7     8    1
    18     8     9    1
    19     9    10    1
    20    10    11    1
    21    11    12    1
    22    12    13    1
    23    13    14    1
    24     9    15    1
    25    15    16    1
    26    16     7    1
    27    23    18   ar
    28    14     9    1
    29     3     4    1
@<TRIPOS>MOLECULE
*****
 27 29 0 0 0
SMALL
GASTEIGER

@<TRIPOS>ATOM
      1 C          62.2827   87.6349   11.8323 C.2     1  UNL1        0.2252
      2 O          63.4943   87.2898   12.6463 O.2     1  UNL1       -0.2750
      3 N          61.7287   89.0286   11.8656 N.am    1  UNL1       -0.3004
      4 H          60.9335   89.2551   11.3313 H       1  UNL1        0.1497
      5 C          61.6250   86.5865   10.9846 C.3     1  UNL1        0.1154
      6 C          62.3400   86.4395    9.1147 C.3     1  UNL1        0.0335
      7 C          62.4575   85.5383   10.3080 C.3     1  UNL1        0.1377
      8 C          62.4011   84.8562   11.6427 C.3     1  UNL1        0.0613
      9 C          63.1742   83.5747   11.5415 C.3     1  UNL1        0.1290
     10 C          63.9756   82.3318   11.2907 C.3     1  UNL1        0.0305
     11 C          64.1787   81.3353   12.3932 C.3     1  UNL1        0.0025
     12 C          63.5805   81.5817   13.7466 C.3     1  UNL1        0.0002
     13 C          62.7792   82.8246   13.9974 C.3     1  UNL1        0.0025
     14 C          62.5760   83.8211   12.8949 C.3     1  UNL1        0.0305
     15 O          63.7085   83.4649   10.1442 O.3     1  UNL1       -0.2256
     16 O          63.2656   84.6784    9.3818 O.3     1  UNL1       -0.2251
     17 C          62.3864   90.0769   12.7132 C.3     1  UNL1        0.1163
     18 C          63.4435   90.9631   12.1240 C.ar    1  UNL1       -0.0026
     19 C          64.5342   91.5113   12.9958 C.ar    1  UNL1       -0.0029
     20 C          65.5913   92.3975   12.4066 C.ar    1  UNL1       -0.0046
     21 C          65.5577   92.7356   10.9456 C.ar    1  UNL1       -0.0228
     22 C          64.4671   92.1875   10.0739 C.ar    1  UNL1       -0.0046
     23 C          63.4100   91.3012   10.6630 C.ar    1  UNL1       -0.0029
     24 C          66.6149   93.6218   10.3565 C.3     1  UNL1        0.0189
     25 C          65.7547   94.8224   10.6188 C.3     1  UNL1        0.0044
     26 C          67.4751   92.4213   10.0942 C.3     1  UNL1        0.0044
     27 C          67.6720   94.5080    9.7673 C.3     1  UNL1        0.0044
@<TRIPOS>BOND
     1     6     7    1
     2     7     5    1
     3     5     1    1
     4     1     2    2
     5     1     3   am
     6     3    17    1
     7    17    18    1
     8    18    19   ar
     9    19    20   ar
    10    20    21   ar
    11    21    24    1
    12    24    25    1
    13    24    26    1
    14    24    27    1
    15    21    22   ar
    16    22    23   ar
    17     7     8    1
    18     8     9    1
    19     9    10    1
    20    10    11    1
    21    11    12    1
    22    12    13    1
    23    13    14    1
    24     9    15    1
    25    15    16    1
    26    16     7    1
    27    23    18   ar
    28    14     9    1
    29     3     4    1
@<TRIPOS>MOLECULE
*****
 27 29 0 0 0
SMALL
GASTEIGER

@<TRIPOS>ATOM
      1 C          64.4199   91.9456   10.9298 C.2     1  UNL1        0.2252
      2 O          63.4783   91.8186    9.7692 O.2     1  UNL1       -0.2750
      3 N          64.2343   91.0846   12.1441 N.am    1  UNL1       -0.3004
      4 H          64.8524   91.1680   12.9058 H       1  UNL1        0.1497
      5 C          65.5472   92.9338   10.8763 C.3     1  UNL1        0.1154
      6 C          67.1710   92.4086    9.8193 C.3     1  UNL1        0.0335
      7 C          66.9270   92.5207   11.2950 C.3     1  UNL1        0.1377
      8 C          66.3947   92.7192   12.6833 C.3     1  UNL1        0.0613
      9 C          67.4966   92.4053   13.6516 C.3     1  UNL1        0.1290
     10 C          68.6883   92.0607   14.4948 C.3     1  UNL1        0.0305
     11 C          68.5934   92.1275   15.9902 C.3     1  UNL1        0.0025
     12 C          67.3068   92.5390   16.6425 C.3     1  UNL1        0.0002
     13 C          66.1151   92.8836   15.7993 C.3     1  UNL1        0.0025
     14 C          66.2100   92.8168   14.3038 C.3     1  UNL1        0.0305
     15 O          68.7099   92.0129   12.8617 O.3     1  UNL1       -0.2256
     16 O          68.3579   92.0842   11.4052 O.3     1  UNL1       -0.2251
     17 C          63.1071   90.0965   12.1975 C.3     1  UNL1        0.1163
     18 C          63.3440   88.7168   12.7363 C.ar    1  UNL1       -0.0026
     19 C          64.0837   88.5329   14.0282 C.ar    1  UNL1       -0.0029
     20 C          64.3207   87.1532   14.5670 C.ar    1  UNL1       -0.0046
     21 C          63.8180   85.9574   13.8138 C.ar    1  UNL1       -0.0228
     22 C          63.0783   86.1413   12.5219 C.ar    1  UNL1       -0.0046
     23 C          62.8413   87.5210   11.9831 C.ar    1  UNL1       -0.0029
     24 C          64.0550   84.5777   14.3526 C.3     1  UNL1        0.0189
     25 C          64.1354   84.0447   12.9528 C.3     1  UNL1        0.0044
     26 C          63.9746   85.1106   15.7524 C.3     1  UNL1        0.0044
     27 C          64.2920   83.1980   14.8915 C.3     1  UNL1        0.0044
@<TRIPOS>BOND
     1     6     7    1
     2     7     5    1
     3     5     1    1
     4     1     2    2
     5     1     3   am
     6     3    17    1
     7    17    18    1
     8    18    19   ar
     9    19    20   ar
    10    20    21   ar
    11    21    24    1
    12    24    25    1
    13    24    26    1
    14    24    27    1
    15    21    22   ar
    16    22    23   ar
    17     7     8    1
    18     8     9    1
    19     9    10    1
    20    10    11    1
    21    11    12    1
    22    12    13    1
    23    13    14    1
    24     9    15    1
    25    15    16    1
    26    16     7    1
    27    23    18   ar
    28    14     9    1
    29     3     4    1
