@<TRIPOS>MOLECULE
*****
 20 22 0 0 0
SMALL
GASTEIGER

@<TRIPOS>ATOM
      1 C          65.6854   92.6037   11.9343 C.2     1  UNL1        0.1223
      2 C          65.5647   91.9540   13.2809 C.2     1  UNL1        0.0343
      3 C          64.5004   90.9255   13.5247 C.2     1  UNL1        0.0232
      4 C          63.5569   90.5466   12.4219 C.2     1  UNL1        0.0975
      5 N          62.4171   89.5730   12.3664 N.2     1  UNL1       -0.2200
      6 C          61.8334   89.6210   10.9854 C.2     1  UNL1        0.1901
      7 N          62.6124   90.6242   10.1875 N.2     1  UNL1       -0.2236
      8 C          63.6776   91.1963   11.0754 C.2     1  UNL1        0.0863
      9 C          64.7418   92.2248   10.8315 C.3     1  UNL1        0.1112
     10 C          66.3777   94.9850   11.1597 C.3     1  UNL1        0.2520
     11 O          66.7496   93.6323   11.6905 O.2     1  UNL1       -0.4753
     12 S          60.6741   88.8084   10.4895 S.3     1  UNL1       -0.0709
     13 C          60.8890   87.7573    9.4412 C.3     1  UNL1        0.0913
     14 C          61.6887   86.5297    9.7628 C.ar    1  UNL1       -0.0109
     15 C          61.6573   85.9558   11.1483 C.ar    1  UNL1       -0.0030
     16 C          62.4570   84.7282   11.4699 C.ar    1  UNL1        0.0055
     17 C          63.2882   84.0745   10.4059 C.ar    1  UNL1        0.0300
     18 I          64.0879   82.8469   10.7275 I       1  UNL1       -0.0425
     19 C          63.3195   84.6484    9.0204 C.ar    1  UNL1        0.0055
     20 C          62.5198   85.8760    8.6989 C.ar    1  UNL1       -0.0030
@<TRIPOS>BOND
     1    10    11    1
     2    11     1    1
     3     1     2    2
     4     2     3    1
     5     3     4    2
     6     4     5    1
     7     5     6    2
     8     6    12    1
     9    12    13    1
    10    13    14    1
    11    14    15   ar
    12    15    16   ar
    13    16    17   ar
    14    17    18    1
    15    17    19   ar
    16    19    20   ar
    17     6     7    1
    18     7     8    2
    19     8     9    1
    20     9     1    1
    21     8     4    1
    22    20    14   ar
@<TRIPOS>MOLECULE
*****
 20 22 0 0 0
SMALL
GASTEIGER

@<TRIPOS>ATOM
      1 C          65.0386   91.9576   13.3329 C.2     1  UNL1        0.1223
      2 C          65.3199   92.5041   11.9647 C.2     1  UNL1        0.0343
      3 C          64.5039   92.0468   10.7920 C.2     1  UNL1        0.0232
      4 C          63.4066   91.0430   10.9877 C.2     1  UNL1        0.0975
      5 N          62.4429   90.4096   10.0285 N.2     1  UNL1       -0.2200
      6 C          61.5660   89.4717   10.8039 C.2     1  UNL1        0.1901
      7 N          61.9877   89.5254   12.2424 N.2     1  UNL1       -0.2236
      8 C          63.1253   90.4966   12.3560 C.2     1  UNL1        0.0863
      9 C          63.9413   90.9539   13.5286 C.3     1  UNL1        0.1112
     10 C          66.7384   93.6203   14.3798 C.3     1  UNL1        0.2520
     11 O          65.8546   92.4149   14.5055 O.2     1  UNL1       -0.4753
     12 S          60.4613   88.6281   10.2398 S.3     1  UNL1       -0.0709
     13 C          60.7718   87.5627    9.2306 C.3     1  UNL1        0.0913
     14 C          61.6222   86.3890    9.6166 C.ar    1  UNL1       -0.0109
     15 C          61.5673   85.8508   11.0157 C.ar    1  UNL1       -0.0030
     16 C          62.4177   84.6771   11.4017 C.ar    1  UNL1        0.0055
     17 C          63.3232   84.0415   10.3886 C.ar    1  UNL1        0.0300
     18 I          64.1737   82.8677   10.7746 I       1  UNL1       -0.0425
     19 C          63.3782   84.5797    8.9896 C.ar    1  UNL1        0.0055
     20 C          62.5277   85.7535    8.6036 C.ar    1  UNL1       -0.0030
@<TRIPOS>BOND
     1    10    11    1
     2    11     1    1
     3     1     2    2
     4     2     3    1
     5     3     4    2
     6     4     5    1
     7     5     6    2
     8     6    12    1
     9    12    13    1
    10    13    14    1
    11    14    15   ar
    12    15    16   ar
    13    16    17   ar
    14    17    18    1
    15    17    19   ar
    16    19    20   ar
    17     6     7    1
    18     7     8    2
    19     8     9    1
    20     9     1    1
    21     8     4    1
    22    20    14   ar
@<TRIPOS>MOLECULE
*****
 20 22 0 0 0
SMALL
GASTEIGER

@<TRIPOS>ATOM
      1 C          63.7883   83.0195   11.6944 C.2     1  UNL1        0.1223
      2 C          64.0700   83.0756   10.2222 C.2     1  UNL1        0.0343
      3 C          63.5055   84.1905    9.3925 C.2     1  UNL1        0.0232
      4 C          62.6592   85.2492   10.0351 C.2     1  UNL1        0.0975
      5 N          61.9716   86.4601    9.4774 N.2     1  UNL1       -0.2200
      6 C          61.2649   87.1523   10.6050 C.2     1  UNL1        0.1901
      7 N          61.5157   86.3693   11.8595 N.2     1  UNL1       -0.2236
      8 C          62.3775   85.1931   11.5073 C.2     1  UNL1        0.0863
      9 C          62.9420   84.0782   12.3369 C.3     1  UNL1        0.1112
     10 C          63.4371   81.0301   13.3281 C.3     1  UNL1        0.2520
     11 O          64.3529   81.9046   12.5241 O.2     1  UNL1       -0.4753
     12 S          60.4503   88.4073   10.4969 S.3     1  UNL1       -0.0709
     13 C          61.0847   89.6727   10.0007 C.3     1  UNL1        0.0913
     14 C          62.2147   90.2953   10.7659 C.ar    1  UNL1       -0.0109
     15 C          63.1667   91.2250   10.0736 C.ar    1  UNL1       -0.0030
     16 C          64.2967   91.8476   10.8388 C.ar    1  UNL1        0.0055
     17 C          64.4747   91.5404   12.2962 C.ar    1  UNL1        0.0300
     18 I          65.6047   92.1630   13.0613 I       1  UNL1       -0.0425
     19 C          63.5226   90.6107   12.9884 C.ar    1  UNL1        0.0055
     20 C          62.3926   89.9881   12.2232 C.ar    1  UNL1       -0.0030
@<TRIPOS>BOND
     1    10    11    1
     2    11     1    1
     3     1     2    2
     4     2     3    1
     5     3     4    2
     6     4     5    1
     7     5     6    2
     8     6    12    1
     9    12    13    1
    10    13    14    1
    11    14    15   ar
    12    15    16   ar
    13    16    17   ar
    14    17    18    1
    15    17    19   ar
    16    19    20   ar
    17     6     7    1
    18     7     8    2
    19     8     9    1
    20     9     1    1
    21     8     4    1
    22    20    14   ar
@<TRIPOS>MOLECULE
*****
 20 22 0 0 0
SMALL
GASTEIGER

@<TRIPOS>ATOM
      1 C          63.4132   82.4435   13.8084 C.2     1  UNL1        0.1223
      2 C          62.8733   82.9092   12.4887 C.2     1  UNL1        0.0343
      3 C          62.8477   84.3732   12.1633 C.2     1  UNL1        0.0232
      4 C          63.3619   85.3716   13.1576 C.2     1  UNL1        0.0975
      5 N          63.4634   86.8676   13.1171 N.2     1  UNL1       -0.2200
      6 C          64.0660   87.3266   14.4118 C.2     1  UNL1        0.1901
      7 N          64.3370   86.1142   15.2524 N.2     1  UNL1       -0.2236
      8 C          63.9018   84.9060   14.4773 C.2     1  UNL1        0.0863
      9 C          63.9274   83.4419   14.8027 C.3     1  UNL1        0.1112
     10 C          62.3881   80.0679   13.5725 C.3     1  UNL1        0.2520
     11 O          63.4388   80.9794   14.1338 O.2     1  UNL1       -0.4753
     12 S          64.3482   88.7483   14.7980 S.3     1  UNL1       -0.0709
     13 C          63.5682   89.8650   14.1698 C.3     1  UNL1        0.0913
     14 C          64.2538   90.8379   13.2570 C.ar    1  UNL1       -0.0109
     15 C          65.4522   91.6010   13.7381 C.ar    1  UNL1       -0.0030
     16 C          66.1379   92.5739   12.8253 C.ar    1  UNL1        0.0055
     17 C          65.6251   92.7838   11.4313 C.ar    1  UNL1        0.0300
     18 I          66.3108   93.7567   10.5184 I       1  UNL1       -0.0425
     19 C          64.4267   92.0207   10.9502 C.ar    1  UNL1        0.0055
     20 C          63.7410   91.0477   11.8631 C.ar    1  UNL1       -0.0030
@<TRIPOS>BOND
     1    10    11    1
     2    11     1    1
     3     1     2    2
     4     2     3    1
     5     3     4    2
     6     4     5    1
     7     5     6    2
     8     6    12    1
     9    12    13    1
    10    13    14    1
    11    14    15   ar
    12    15    16   ar
    13    16    17   ar
    14    17    18    1
    15    17    19   ar
    16    19    20   ar
    17     6     7    1
    18     7     8    2
    19     8     9    1
    20     9     1    1
    21     8     4    1
    22    20    14   ar
@<TRIPOS>MOLECULE
*****
 20 22 0 0 0
SMALL
GASTEIGER

@<TRIPOS>ATOM
      1 C          65.7743   92.5055   12.3218 C.2     1  UNL1        0.1223
      2 C          65.7528   91.7188   13.5987 C.2     1  UNL1        0.0343
      3 C          64.6929   90.6812   13.8226 C.2     1  UNL1        0.0232
      4 C          63.6545   90.4304   12.7696 C.2     1  UNL1        0.0975
      5 N          62.4958   89.4799   12.7090 N.2     1  UNL1       -0.2200
      6 C          61.8011   89.6791   11.3945 C.2     1  UNL1        0.1901
      7 N          62.5305   90.7528   10.6428 N.2     1  UNL1       -0.2236
      8 C          63.6761   91.2171   11.4927 C.2     1  UNL1        0.0863
      9 C          64.7359   92.2546   11.2688 C.3     1  UNL1        0.1112
     10 C          66.6311   94.6120   11.0653 C.3     1  UNL1        0.2520
     11 O          66.8342   93.5430   12.0978 O.2     1  UNL1       -0.4753
     12 S          60.5896   88.9352   10.9159 S.3     1  UNL1       -0.0709
     13 C          60.5812   87.4353   10.9179 C.3     1  UNL1        0.0913
     14 C          60.9579   86.6814    9.6771 C.ar    1  UNL1       -0.0109
     15 C          59.9481   86.4799    8.5863 C.ar    1  UNL1       -0.0030
     16 C          60.3248   85.7261    7.3455 C.ar    1  UNL1        0.0055
     17 C          61.7114   85.1737    7.1953 C.ar    1  UNL1        0.0300
     18 I          62.0881   84.4199    5.9545 I       1  UNL1       -0.0425
     19 C          62.7211   85.3752    8.2861 C.ar    1  UNL1        0.0055
     20 C          62.3444   86.1291    9.5270 C.ar    1  UNL1       -0.0030
@<TRIPOS>BOND
     1    10    11    1
     2    11     1    1
     3     1     2    2
     4     2     3    1
     5     3     4    2
     6     4     5    1
     7     5     6    2
     8     6    12    1
     9    12    13    1
    10    13    14    1
    11    14    15   ar
    12    15    16   ar
    13    16    17   ar
    14    17    18    1
    15    17    19   ar
    16    19    20   ar
    17     6     7    1
    18     7     8    2
    19     8     9    1
    20     9     1    1
    21     8     4    1
    22    20    14   ar
@<TRIPOS>MOLECULE
*****
 20 22 0 0 0
SMALL
GASTEIGER

@<TRIPOS>ATOM
      1 C          66.0242   92.3025   14.6111 C.2     1  UNL1        0.1223
      2 C          66.3013   93.2465   13.4789 C.2     1  UNL1        0.0343
      3 C          65.6237   93.0495   12.1552 C.2     1  UNL1        0.0232
      4 C          64.6690   91.9085   11.9638 C.2     1  UNL1        0.0975
      5 N          63.8584   91.4655   10.7821 N.2     1  UNL1       -0.2200
      6 C          63.0802   90.2477   11.1840 C.2     1  UNL1        0.1901
      7 N          63.4100   89.9380   12.6142 N.2     1  UNL1       -0.2236
      8 C          64.3919   90.9645   13.0961 C.2     1  UNL1        0.0863
      9 C          65.0695   91.1615   14.4198 C.3     1  UNL1        0.1112
     10 C          68.1947   92.3954   16.0360 C.3     1  UNL1        0.2520
     11 O          66.7018   92.4995   15.9348 O.2     1  UNL1       -0.4753
     12 S          62.1378   89.4751   10.3093 S.3     1  UNL1       -0.0709
     13 C          61.4263   88.2716   10.8526 C.3     1  UNL1        0.0913
     14 C          62.0621   86.9166   10.7541 C.ar    1  UNL1       -0.0109
     15 C          62.3651   86.3263    9.4088 C.ar    1  UNL1       -0.0030
     16 C          63.0009   84.9713    9.3103 C.ar    1  UNL1        0.0055
     17 C          63.3336   84.2065   10.5571 C.ar    1  UNL1        0.0300
     18 I          63.9694   82.8515   10.4586 I       1  UNL1       -0.0425
     19 C          63.0306   84.7968   11.9024 C.ar    1  UNL1        0.0055
     20 C          62.3948   86.1518   12.0009 C.ar    1  UNL1       -0.0030
@<TRIPOS>BOND
     1    10    11    1
     2    11     1    1
     3     1     2    2
     4     2     3    1
     5     3     4    2
     6     4     5    1
     7     5     6    2
     8     6    12    1
     9    12    13    1
    10    13    14    1
    11    14    15   ar
    12    15    16   ar
    13    16    17   ar
    14    17    18    1
    15    17    19   ar
    16    19    20   ar
    17     6     7    1
    18     7     8    2
    19     8     9    1
    20     9     1    1
    21     8     4    1
    22    20    14   ar
@<TRIPOS>MOLECULE
*****
 20 22 0 0 0
SMALL
GASTEIGER

@<TRIPOS>ATOM
      1 C          65.6848   91.6634   14.0574 C.2     1  UNL1        0.1223
      2 C          65.9033   92.3656   12.7501 C.2     1  UNL1        0.0343
      3 C          64.9652   92.1266   11.6043 C.2     1  UNL1        0.0232
      4 C          63.8085   91.1854   11.7659 C.2     1  UNL1        0.0975
      5 N          62.7257   90.7544   10.8216 N.2     1  UNL1       -0.2200
      6 C          61.8379   89.7858   11.5452 C.2     1  UNL1        0.1901
      7 N          62.3720   89.6182   12.9369 N.2     1  UNL1       -0.2236
      8 C          63.5899   90.4833   13.0732 C.2     1  UNL1        0.0863
      9 C          64.5281   90.7222   14.2190 C.3     1  UNL1        0.1112
     10 C          67.8853   92.6836   14.9885 C.3     1  UNL1        0.2520
     11 O          66.6229   91.9024   15.2032 O.2     1  UNL1       -0.4753
     12 S          60.6284   89.1044   10.9770 S.3     1  UNL1       -0.0709
     13 C          60.5387   87.6071   10.9836 C.3     1  UNL1        0.0913
     14 C          60.9124   86.8279    9.7576 C.ar    1  UNL1       -0.0109
     15 C          62.2907   86.2506    9.6270 C.ar    1  UNL1       -0.0030
     16 C          62.6645   85.4714    8.4010 C.ar    1  UNL1        0.0055
     17 C          61.6599   85.2696    7.3054 C.ar    1  UNL1        0.0300
     18 I          62.0337   84.4904    6.0794 I       1  UNL1       -0.0425
     19 C          60.2816   85.8469    7.4360 C.ar    1  UNL1        0.0055
     20 C          59.9079   86.6261    8.6621 C.ar    1  UNL1       -0.0030
@<TRIPOS>BOND
     1    10    11    1
     2    11     1    1
     3     1     2    2
     4     2     3    1
     5     3     4    2
     6     4     5    1
     7     5     6    2
     8     6    12    1
     9    12    13    1
    10    13    14    1
    11    14    15   ar
    12    15    16   ar
    13    16    17   ar
    14    17    18    1
    15    17    19   ar
    16    19    20   ar
    17     6     7    1
    18     7     8    2
    19     8     9    1
    20     9     1    1
    21     8     4    1
    22    20    14   ar
@<TRIPOS>MOLECULE
*****
 20 22 0 0 0
SMALL
GASTEIGER

@<TRIPOS>ATOM
      1 C          64.2744   90.5016   15.1549 C.2     1  UNL1        0.1223
      2 C          63.4883   90.3982   16.4282 C.2     1  UNL1        0.0343
      3 C          63.0374   89.0564   16.9243 C.2     1  UNL1        0.0232
      4 C          63.3724   87.8180   16.1472 C.2     1  UNL1        0.0975
      5 N          63.0659   86.3693   16.3863 N.2     1  UNL1       -0.2200
      6 C          63.6625   85.5773   15.2607 C.2     1  UNL1        0.1901
      7 N          64.3378   86.5365   14.3260 N.2     1  UNL1       -0.2236
      8 C          64.1585   87.9214   14.8738 C.2     1  UNL1        0.0863
      9 C          64.6095   89.2632   14.3777 C.3     1  UNL1        0.1112
     10 C          66.0542   92.3930   15.0854 C.3     1  UNL1        0.2520
     11 O          64.7254   91.8434   14.6587 O.2     1  UNL1       -0.4753
     12 S          63.5956   84.0875   15.0985 S.3     1  UNL1       -0.0709
     13 C          64.2207   83.4347   13.9014 C.3     1  UNL1        0.0913
     14 C          63.8170   83.8576   12.5201 C.ar    1  UNL1       -0.0109
     15 C          62.7815   84.9271   12.3358 C.ar    1  UNL1       -0.0030
     16 C          62.3777   85.3500   10.9545 C.ar    1  UNL1        0.0055
     17 C          63.0094   84.7035    9.7574 C.ar    1  UNL1        0.0300
     18 I          62.6056   85.1264    8.3761 I       1  UNL1       -0.0425
     19 C          64.0449   83.6340    9.9417 C.ar    1  UNL1        0.0055
     20 C          64.4487   83.2111   11.3231 C.ar    1  UNL1       -0.0030
@<TRIPOS>BOND
     1    10    11    1
     2    11     1    1
     3     1     2    2
     4     2     3    1
     5     3     4    2
     6     4     5    1
     7     5     6    2
     8     6    12    1
     9    12    13    1
    10    13    14    1
    11    14    15   ar
    12    15    16   ar
    13    16    17   ar
    14    17    18    1
    15    17    19   ar
    16    19    20   ar
    17     6     7    1
    18     7     8    2
    19     8     9    1
    20     9     1    1
    21     8     4    1
    22    20    14   ar
@<TRIPOS>MOLECULE
*****
 20 22 0 0 0
SMALL
GASTEIGER

@<TRIPOS>ATOM
      1 C          62.9198   83.8059   11.2280 C.2     1  UNL1        0.1223
      2 C          63.0873   83.8931    9.7400 C.2     1  UNL1        0.0343
      3 C          62.9017   85.2068    9.0401 C.2     1  UNL1        0.0232
      4 C          62.5487   86.4332    9.8283 C.2     1  UNL1        0.0975
      5 N          62.3047   87.8549    9.4170 N.2     1  UNL1       -0.2200
      6 C          61.9864   88.6463   10.6509 C.2     1  UNL1        0.1901
      7 N          62.0336   87.7138   11.8247 N.2     1  UNL1       -0.2236
      8 C          62.3812   86.3459   11.3163 C.2     1  UNL1        0.0863
      9 C          62.5667   85.0322   12.0162 C.3     1  UNL1        0.1112
     10 C          64.3205   82.2591   12.7757 C.3     1  UNL1        0.2520
     11 O          63.1053   82.4922   11.9279 O.2     1  UNL1       -0.4753
     12 S          61.6754   90.1129   10.7018 S.3     1  UNL1       -0.0709
     13 C          62.7360   91.1168   10.3593 C.3     1  UNL1        0.0913
     14 C          63.8271   91.4203   11.3429 C.ar    1  UNL1       -0.0109
     15 C          63.7517   90.8756   12.7385 C.ar    1  UNL1       -0.0030
     16 C          64.8427   91.1791   13.7220 C.ar    1  UNL1        0.0055
     17 C          66.0092   92.0274   13.3101 C.ar    1  UNL1        0.0300
     18 I          67.1003   92.3309   14.2936 I       1  UNL1       -0.0425
     19 C          66.0847   92.5722   11.9145 C.ar    1  UNL1        0.0055
     20 C          64.9935   92.2686   10.9309 C.ar    1  UNL1       -0.0030
@<TRIPOS>BOND
     1    10    11    1
     2    11     1    1
     3     1     2    2
     4     2     3    1
     5     3     4    2
     6     4     5    1
     7     5     6    2
     8     6    12    1
     9    12    13    1
    10    13    14    1
    11    14    15   ar
    12    15    16   ar
    13    16    17   ar
    14    17    18    1
    15    17    19   ar
    16    19    20   ar
    17     6     7    1
    18     7     8    2
    19     8     9    1
    20     9     1    1
    21     8     4    1
    22    20    14   ar
