@<TRIPOS>MOLECULE
*****
 48 52 0 0 0
SMALL
GASTEIGER

@<TRIPOS>ATOM
      1 N          63.9050   91.1788   11.7097 N.am    1  UNL1       -0.2735
      2 C          64.3474   91.2448   13.1414 C.2     1  UNL1        0.2492
      3 O          65.0837   92.4511   13.6441 O.2     1  UNL1       -0.2699
      4 C          64.0535   90.1044   14.0705 C.ar    1  UNL1        0.0567
      5 C          63.6027   90.3781   15.4748 C.ar    1  UNL1        0.0063
      6 C          63.3088   89.2378   16.4038 C.ar    1  UNL1        0.0225
      7 C          63.4657   87.8237   15.9286 C.ar    1  UNL1        0.1202
      8 N          63.2511   86.5056   16.6119 N.ar    1  UNL1       -0.1948
      9 C          63.5693   85.4173   15.6299 C.ar    1  UNL1        0.2890
     10 O          63.9805   86.0627   14.3398 O.2     1  UNL1       -0.4239
     11 C          63.9164   87.5499   14.5244 C.ar    1  UNL1        0.1662
     12 C          64.2103   88.6903   13.5954 C.ar    1  UNL1        0.0437
     13 N          63.4902   83.9424   15.8919 N.pl3   1  UNL1       -0.2899
     14 H          63.5496   83.6024   16.8139 H       1  UNL1        0.1511
     15 C          63.3205   82.9857   14.7492 C.3     1  UNL1        0.0760
     16 C          62.0031   82.3019   14.5328 C.3     1  UNL1        0.0370
     17 C          61.8334   81.3452   13.3900 C.3     1  UNL1        0.0738
     18 N          62.9813   81.0723   12.4637 N.3     1  UNL1       -0.2714
     19 C          62.8117   80.1155   11.3209 C.3     1  UNL1        0.0896
     20 C          64.2987   81.7560   12.6801 C.3     1  UNL1        0.0738
     21 C          64.4683   82.7128   13.8229 C.3     1  UNL1        0.0370
     22 C          64.1989   92.3192   10.7805 C.3     1  UNL1        0.0937
     23 C          65.7056   94.4314   10.9151 C.3     1  UNL1        0.0018
     24 C          65.5619   92.9455   10.7696 C.3     1  UNL1        0.0199
     25 C          66.7811   92.0857   10.6131 C.3     1  UNL1        0.0018
     26 C          63.1687   89.9725   11.2070 C.3     1  UNL1        0.1245
     27 C          61.6937   90.0493   10.9452 C.3     1  UNL1        0.1484
     28 O          60.8767   91.1405   11.5712 O.3     1  UNL1       -0.3810
     29 H          61.4514   91.7057   12.1108 H       1  UNL1        0.2105
     30 C          61.0357   89.0350   10.0574 C.3     1  UNL1        0.1075
     31 N          60.6879   89.3902    8.6421 N.am    1  UNL1       -0.2695
     32 C          59.6403   88.6068    7.9081 C.2     1  UNL1        0.4020
     33 O          58.9404   87.4682    8.5893 O.2     1  UNL1       -0.2264
     34 H          61.1472   90.1374    8.1951 H       1  UNL1        0.1528
     35 O          59.2925   88.9619    6.4929 O.3     1  UNL1       -0.4291
     36 C          58.6536   90.2841    6.1868 C.3     1  UNL1        0.2447
     37 C          59.2104   91.1518    5.0972 C.ar    1  UNL1        0.0714
     38 C          58.4274   92.1006    4.2388 C.ar    1  UNL1        0.1053
     39 N          59.3810   92.7582    3.2858 N.ar    1  UNL1       -0.2350
     40 C          60.7534   92.2157    3.5552 C.ar    1  UNL1        0.1343
     41 S          60.6479   91.2229    4.6746 S.2     1  UNL1       -0.0652
     42 C          60.7255   87.6655   10.5849 C.3     1  UNL1        0.0485
     43 C          61.6462   86.5200   10.2847 C.ar    1  UNL1       -0.0204
     44 C          62.2273   86.3650    8.9105 C.ar    1  UNL1       -0.0042
     45 C          63.1480   85.2194    8.6104 C.ar    1  UNL1       -0.0003
     46 C          63.4875   84.2289    9.6844 C.ar    1  UNL1       -0.0000
     47 C          62.9065   84.3838   11.0586 C.ar    1  UNL1       -0.0003
     48 C          61.9858   85.5294   11.3587 C.ar    1  UNL1       -0.0042
@<TRIPOS>BOND
     1    23    24    1
     2    24    25    1
     3    24    22    1
     4    22     1    1
     5     1    26    1
     6    26    27    1
     7    27    28    1
     8    27    30    1
     9    30    42    1
    10    42    43    1
    11    43    44   ar
    12    44    45   ar
    13    45    46   ar
    14    46    47   ar
    15    47    48   ar
    16    30    31    1
    17    31    32   am
    18    32    33    2
    19    32    35    1
    20    35    36    1
    21    36    37    1
    22    37    38   ar
    23    38    39   ar
    24    39    40   ar
    25    40    41   ar
    26     1     2   am
    27     2     3    2
    28     2     4    1
    29     4     5   ar
    30     5     6   ar
    31     6     7   ar
    32     7     8   ar
    33     8     9   ar
    34     9    13    1
    35    13    15    1
    36    15    16    1
    37    16    17    1
    38    17    18    1
    39    18    19    1
    40    18    20    1
    41    20    21    1
    42     9    10   ar
    43    10    11   ar
    44    11    12   ar
    45    48    43   ar
    46    41    37   ar
    47    12     4   ar
    48    11     7   ar
    49    21    15    1
    50    28    29    1
    51    31    34    1
    52    13    14    1
@<TRIPOS>MOLECULE
*****
 48 52 0 0 0
SMALL
GASTEIGER

@<TRIPOS>ATOM
      1 N          59.9108   88.5501    8.9771 N.am    1  UNL1       -0.2735
      2 C          59.3787   88.2675    7.6034 C.2     1  UNL1        0.2492
      3 O          58.9868   86.8703    7.2237 O.2     1  UNL1       -0.2699
      4 C          59.2386   89.3822    6.6094 C.ar    1  UNL1        0.0567
      5 C          57.8946   89.9996    6.3595 C.ar    1  UNL1        0.0063
      6 C          57.7545   91.1142    5.3655 C.ar    1  UNL1        0.0225
      7 C          58.9583   91.6114    4.6215 C.ar    1  UNL1        0.1202
      8 N          59.1271   92.6872    3.5899 N.ar    1  UNL1       -0.1948
      9 C          60.5753   92.7347    3.2023 C.ar    1  UNL1        0.2890
     10 O          61.3017   91.6882    3.9944 O.2     1  UNL1       -0.4239
     11 C          60.3023   90.9939    4.8714 C.ar    1  UNL1        0.1662
     12 C          60.4424   89.8793    5.8654 C.ar    1  UNL1        0.0437
     13 N          61.1895   93.6653    2.1989 N.pl3   1  UNL1       -0.2899
     14 H          61.9033   94.2848    2.4744 H       1  UNL1        0.1511
     15 C          60.7162   93.6519    0.7756 C.3     1  UNL1        0.0760
     16 C          61.7068   93.5195   -0.3431 C.3     1  UNL1        0.0370
     17 C          61.2334   93.5061   -1.7663 C.3     1  UNL1        0.0738
     18 N          59.7695   93.6250   -2.0710 N.3     1  UNL1       -0.2714
     19 C          59.2961   93.6116   -3.4943 C.3     1  UNL1        0.0896
     20 C          58.7789   93.7573   -0.9524 C.3     1  UNL1        0.0738
     21 C          59.2523   93.7707    0.4709 C.3     1  UNL1        0.0370
     22 C          60.0510   87.4354    9.9711 C.3     1  UNL1        0.0937
     23 C          61.6122   85.7218   11.1441 C.3     1  UNL1        0.0018
     24 C          61.2675   86.5582    9.9477 C.3     1  UNL1        0.0199
     25 C          62.1394   86.5175    8.7277 C.3     1  UNL1        0.0018
     26 C          60.3027   89.9473    9.3569 C.3     1  UNL1        0.1245
     27 C          60.9753   90.2063   10.6724 C.3     1  UNL1        0.1484
     28 O          60.1504   90.4439   11.9025 O.3     1  UNL1       -0.3810
     29 H          59.2088   90.3965   11.6745 H       1  UNL1        0.2105
     30 C          62.4727   90.2276   10.7578 C.3     1  UNL1        0.1075
     31 N          63.2150   89.0084   11.2192 N.am    1  UNL1       -0.2695
     32 C          63.2440   88.6548   12.6766 C.2     1  UNL1        0.4020
     33 O          62.5307   89.5204   13.6727 O.2     1  UNL1       -0.2264
     34 H          63.6831   88.4404   10.5654 H       1  UNL1        0.1528
     35 O          63.9863   87.4358   13.1380 O.3     1  UNL1       -0.4291
     36 C          63.6953   86.8459   14.4861 C.3     1  UNL1        0.2447
     37 C          63.6056   85.3576   14.6500 C.ar    1  UNL1        0.0714
     38 C          62.7653   84.6306   15.6577 C.ar    1  UNL1        0.1053
     39 N          62.9808   83.1586   15.4655 N.ar    1  UNL1       -0.2350
     40 C          63.9543   82.9759   14.3390 C.ar    1  UNL1        0.1343
     41 S          64.3405   84.3349   13.8351 S.2     1  UNL1       -0.0652
     42 C          63.2278   91.4679   10.3819 C.3     1  UNL1        0.0485
     43 C          64.4559   91.8597   11.1489 C.ar    1  UNL1       -0.0204
     44 C          65.6643   92.3689   10.4207 C.ar    1  UNL1       -0.0042
     45 C          66.8924   92.7607   11.1877 C.ar    1  UNL1       -0.0003
     46 C          66.9121   92.6431   12.6830 C.ar    1  UNL1       -0.0000
     47 C          65.7036   92.1339   13.4112 C.ar    1  UNL1       -0.0003
     48 C          64.4756   91.7422   12.6442 C.ar    1  UNL1       -0.0042
@<TRIPOS>BOND
     1    23    24    1
     2    24    25    1
     3    24    22    1
     4    22     1    1
     5     1    26    1
     6    26    27    1
     7    27    28    1
     8    27    30    1
     9    30    42    1
    10    42    43    1
    11    43    44   ar
    12    44    45   ar
    13    45    46   ar
    14    46    47   ar
    15    47    48   ar
    16    30    31    1
    17    31    32   am
    18    32    33    2
    19    32    35    1
    20    35    36    1
    21    36    37    1
    22    37    38   ar
    23    38    39   ar
    24    39    40   ar
    25    40    41   ar
    26     1     2   am
    27     2     3    2
    28     2     4    1
    29     4     5   ar
    30     5     6   ar
    31     6     7   ar
    32     7     8   ar
    33     8     9   ar
    34     9    13    1
    35    13    15    1
    36    15    16    1
    37    16    17    1
    38    17    18    1
    39    18    19    1
    40    18    20    1
    41    20    21    1
    42     9    10   ar
    43    10    11   ar
    44    11    12   ar
    45    48    43   ar
    46    41    37   ar
    47    12     4   ar
    48    11     7   ar
    49    21    15    1
    50    28    29    1
    51    31    34    1
    52    13    14    1
@<TRIPOS>MOLECULE
*****
 48 52 0 0 0
SMALL
GASTEIGER

@<TRIPOS>ATOM
      1 N          61.3770   86.6628    8.9745 N.am    1  UNL1       -0.2735
      2 C          60.8441   88.0485    9.1885 C.2     1  UNL1        0.2492
      3 O          59.6586   88.5257    8.4031 O.2     1  UNL1       -0.2699
      4 C          61.4968   88.9570   10.1878 C.ar    1  UNL1        0.0567
      5 C          61.0074   88.9877   11.6053 C.ar    1  UNL1        0.0063
      6 C          61.6601   89.8963   12.6046 C.ar    1  UNL1        0.0225
      7 C          62.8022   90.7741   12.1863 C.ar    1  UNL1        0.1202
      8 N          63.6365   91.7645   12.9434 N.ar    1  UNL1       -0.1948
      9 C          64.6415   92.3458   11.9938 C.ar    1  UNL1        0.2890
     10 O          64.4284   91.7148   10.6498 O.2     1  UNL1       -0.4239
     11 C          63.2917   90.7434   10.7688 C.ar    1  UNL1        0.1662
     12 C          62.6390   89.8349    9.7695 C.ar    1  UNL1        0.0437
     13 N          65.6778   93.3772   12.3292 N.pl3   1  UNL1       -0.2899
     14 H          65.9838   93.4834   13.2589 H       1  UNL1        0.1511
     15 C          66.2479   94.2468   11.2480 C.3     1  UNL1        0.0760
     16 C          67.1010   93.6432   10.1718 C.3     1  UNL1        0.0370
     17 C          67.6711   94.5127    9.0907 C.3     1  UNL1        0.0738
     18 N          67.3881   95.9859    9.0858 N.3     1  UNL1       -0.2714
     19 C          67.9583   96.8554    8.0046 C.3     1  UNL1        0.0896
     20 C          66.5352   96.5894   10.1619 C.3     1  UNL1        0.0738
     21 C          65.9651   95.7198   11.2431 C.3     1  UNL1        0.0370
     22 C          60.7243   85.7542    7.9752 C.3     1  UNL1        0.0937
     23 C          63.0504   84.8626    7.2377 C.3     1  UNL1        0.0018
     24 C          61.5671   84.9479    7.0320 C.3     1  UNL1        0.0199
     25 C          60.9265   84.2271    5.8830 C.3     1  UNL1        0.0018
     26 C          62.5625   86.1855    9.7599 C.3     1  UNL1        0.1245
     27 C          62.3596   85.4442   11.0481 C.3     1  UNL1        0.1484
     28 O          61.2014   85.7882   11.9370 O.3     1  UNL1       -0.3810
     29 H          60.6868   86.5053   11.5346 H       1  UNL1        0.2105
     30 C          63.3151   84.3590   11.4474 C.3     1  UNL1        0.1075
     31 N          64.1246   84.4969   12.7027 N.am    1  UNL1       -0.2695
     32 C          63.4402   84.5250   14.0372 C.2     1  UNL1        0.4020
     33 O          61.9463   84.4151   14.1163 O.2     1  UNL1       -0.2264
     34 H          65.1051   84.5691   12.6507 H       1  UNL1        0.1528
     35 O          64.2496   84.6629   15.2924 O.3     1  UNL1       -0.4291
     36 C          63.7632   85.5428   16.4056 C.3     1  UNL1        0.2447
     37 C          63.6462   87.0233   16.1949 C.ar    1  UNL1        0.0714
     38 C          64.1977   87.7948   15.0327 C.ar    1  UNL1        0.1053
     39 N          63.8495   89.2405   15.2288 N.ar    1  UNL1       -0.2350
     40 C          63.0827   89.3626   16.5122 C.ar    1  UNL1        0.1343
     41 S          62.9571   87.9923   17.1093 S.2     1  UNL1       -0.0652
     42 C          63.4610   83.1359   10.5915 C.3     1  UNL1        0.0485
     43 C          63.1196   81.7857   11.1485 C.ar    1  UNL1       -0.0204
     44 C          62.7309   81.6456   12.5904 C.ar    1  UNL1       -0.0042
     45 C          62.3895   80.2953   13.1474 C.ar    1  UNL1       -0.0003
     46 C          62.4369   79.0851   12.2624 C.ar    1  UNL1       -0.0000
     47 C          62.8257   79.2252   10.8205 C.ar    1  UNL1       -0.0003
     48 C          63.1670   80.5754   10.2635 C.ar    1  UNL1       -0.0042
@<TRIPOS>BOND
     1    23    24    1
     2    24    25    1
     3    24    22    1
     4    22     1    1
     5     1    26    1
     6    26    27    1
     7    27    28    1
     8    27    30    1
     9    30    42    1
    10    42    43    1
    11    43    44   ar
    12    44    45   ar
    13    45    46   ar
    14    46    47   ar
    15    47    48   ar
    16    30    31    1
    17    31    32   am
    18    32    33    2
    19    32    35    1
    20    35    36    1
    21    36    37    1
    22    37    38   ar
    23    38    39   ar
    24    39    40   ar
    25    40    41   ar
    26     1     2   am
    27     2     3    2
    28     2     4    1
    29     4     5   ar
    30     5     6   ar
    31     6     7   ar
    32     7     8   ar
    33     8     9   ar
    34     9    13    1
    35    13    15    1
    36    15    16    1
    37    16    17    1
    38    17    18    1
    39    18    19    1
    40    18    20    1
    41    20    21    1
    42     9    10   ar
    43    10    11   ar
    44    11    12   ar
    45    48    43   ar
    46    41    37   ar
    47    12     4   ar
    48    11     7   ar
    49    21    15    1
    50    28    29    1
    51    31    34    1
    52    13    14    1
@<TRIPOS>MOLECULE
*****
 48 52 0 0 0
SMALL
GASTEIGER

@<TRIPOS>ATOM
      1 N          63.7230   87.2676   13.3592 N.am    1  UNL1       -0.2735
      2 C          63.0907   86.0769   12.7018 C.2     1  UNL1        0.2492
      3 O          63.1460   84.7344   13.3688 O.2     1  UNL1       -0.2699
      4 C          62.4029   86.2285   11.3773 C.ar    1  UNL1        0.0567
      5 C          62.7399   85.3020   10.2469 C.ar    1  UNL1        0.0063
      6 C          62.0522   85.4537    8.9225 C.ar    1  UNL1        0.0225
      7 C          61.0275   86.5318    8.7286 C.ar    1  UNL1        0.1202
      8 N          60.1914   86.9208    7.5455 N.ar    1  UNL1       -0.1948
      9 C          59.3376   88.0877    7.9448 C.ar    1  UNL1        0.2890
     10 O          59.6462   88.4199    9.3747 O.2     1  UNL1       -0.4239
     11 C          60.6905   87.4583    9.8591 C.ar    1  UNL1        0.1662
     12 C          61.3783   87.3067   11.1834 C.ar    1  UNL1        0.0437
     13 N          58.3490   88.7978    7.0682 N.pl3   1  UNL1       -0.2899
     14 H          57.3949   88.5581    7.1078 H       1  UNL1        0.1511
     15 C          58.8139   89.8731    6.1315 C.3     1  UNL1        0.0760
     16 C          57.8216   90.8216    5.5268 C.3     1  UNL1        0.0370
     17 C          58.2866   91.8969    4.5900 C.3     1  UNL1        0.0738
     18 N          59.7439   92.0237    4.2580 N.3     1  UNL1       -0.2714
     19 C          60.2089   93.0990    3.3212 C.3     1  UNL1        0.0896
     20 C          60.7361   91.0752    4.8626 C.3     1  UNL1        0.0738
     21 C          60.2712   89.9999    5.7994 C.3     1  UNL1        0.0370
     22 C          64.4107   87.1160   14.6837 C.3     1  UNL1        0.0937
     23 C          63.2275   88.2624   16.6925 C.3     1  UNL1        0.0018
     24 C          63.6008   87.0183   15.9425 C.3     1  UNL1        0.0199
     25 C          63.1641   85.6764   16.4511 C.3     1  UNL1        0.0018
     26 C          63.6676   88.6100   12.6923 C.3     1  UNL1        0.1245
     27 C          63.4255   89.8442   13.5098 C.3     1  UNL1        0.1484
     28 O          62.0888   90.0678   14.1524 O.3     1  UNL1       -0.3810
     29 H          61.5005   89.3259   13.9417 H       1  UNL1        0.2105
     30 C          64.5202   90.8548   13.6845 C.3     1  UNL1        0.1075
     31 N          65.0233   91.6276   12.5014 N.am    1  UNL1       -0.2695
     32 C          64.1220   91.8734   11.3278 C.2     1  UNL1        0.4020
     33 O          62.7176   91.3465   11.3373 O.2     1  UNL1       -0.2264
     34 H          65.9450   91.9734   12.4952 H       1  UNL1        0.1528
     35 O          64.6251   92.6462   10.1447 O.3     1  UNL1       -0.4291
     36 C          66.0772   93.0101   10.0490 C.3     1  UNL1        0.2447
     37 C          66.4809   94.4436    9.8699 C.ar    1  UNL1        0.0714
     38 C          67.5299   94.9529    8.9264 C.ar    1  UNL1        0.1053
     39 N          67.6039   96.4436    9.0763 N.ar    1  UNL1       -0.2350
     40 C          66.6005   96.8556   10.1125 C.ar    1  UNL1        0.1343
     41 S          65.9065   95.6195   10.6029 S.2     1  UNL1       -0.0652
     42 C          65.1117   91.0925   15.0423 C.3     1  UNL1        0.0485
     43 C          66.4400   91.7769   15.1722 C.ar    1  UNL1       -0.0204
     44 C          66.6690   92.7667   16.2758 C.ar    1  UNL1       -0.0042
     45 C          67.9975   93.4511   16.4057 C.ar    1  UNL1       -0.0003
     46 C          69.0969   93.1457   15.4321 C.ar    1  UNL1       -0.0000
     47 C          68.8679   92.1560   14.3285 C.ar    1  UNL1       -0.0003
     48 C          67.5395   91.4716   14.1985 C.ar    1  UNL1       -0.0042
@<TRIPOS>BOND
     1    23    24    1
     2    24    25    1
     3    24    22    1
     4    22     1    1
     5     1    26    1
     6    26    27    1
     7    27    28    1
     8    27    30    1
     9    30    42    1
    10    42    43    1
    11    43    44   ar
    12    44    45   ar
    13    45    46   ar
    14    46    47   ar
    15    47    48   ar
    16    30    31    1
    17    31    32   am
    18    32    33    2
    19    32    35    1
    20    35    36    1
    21    36    37    1
    22    37    38   ar
    23    38    39   ar
    24    39    40   ar
    25    40    41   ar
    26     1     2   am
    27     2     3    2
    28     2     4    1
    29     4     5   ar
    30     5     6   ar
    31     6     7   ar
    32     7     8   ar
    33     8     9   ar
    34     9    13    1
    35    13    15    1
    36    15    16    1
    37    16    17    1
    38    17    18    1
    39    18    19    1
    40    18    20    1
    41    20    21    1
    42     9    10   ar
    43    10    11   ar
    44    11    12   ar
    45    48    43   ar
    46    41    37   ar
    47    12     4   ar
    48    11     7   ar
    49    21    15    1
    50    28    29    1
    51    31    34    1
    52    13    14    1
@<TRIPOS>MOLECULE
*****
 48 52 0 0 0
SMALL
GASTEIGER

@<TRIPOS>ATOM
      1 N          63.0675   83.2286   13.3682 N.am    1  UNL1       -0.2735
      2 C          63.6863   83.5809   14.6884 C.2     1  UNL1        0.2492
      3 O          64.4551   82.5468   15.4561 O.2     1  UNL1       -0.2699
      4 C          63.5361   84.9673   15.2409 C.ar    1  UNL1        0.0567
      5 C          62.7367   85.1946   16.4896 C.ar    1  UNL1        0.0063
      6 C          62.5866   86.5810   17.0421 C.ar    1  UNL1        0.0225
      7 C          63.2359   87.7402   16.3459 C.ar    1  UNL1        0.1202
      8 N          63.2630   89.2082   16.6529 N.ar    1  UNL1       -0.1948
      9 C          64.0792   89.8882   15.5940 C.ar    1  UNL1        0.2890
     10 O          64.5565   88.8405   14.6325 O.2     1  UNL1       -0.4239
     11 C          64.0354   87.5129   15.0972 C.ar    1  UNL1        0.1662
     12 C          64.1855   86.1265   14.5448 C.ar    1  UNL1        0.0437
     13 N          64.3674   91.3580   15.5110 N.pl3   1  UNL1       -0.2899
     14 H          63.6337   92.0090   15.5946 H       1  UNL1        0.1511
     15 C          65.7737   91.8357   15.3007 C.3     1  UNL1        0.0760
     16 C          66.4541   92.6533   16.3584 C.3     1  UNL1        0.0370
     17 C          67.8603   93.1311   16.1481 C.3     1  UNL1        0.0738
     18 N          68.5862   92.7912   14.8801 N.3     1  UNL1       -0.2714
     19 C          69.9924   93.2690   14.6698 C.3     1  UNL1        0.0896
     20 C          67.9058   91.9737   13.8225 C.3     1  UNL1        0.0738
     21 C          66.4995   91.4959   14.0328 C.3     1  UNL1        0.0370
     22 C          63.2176   81.8421   12.8156 C.3     1  UNL1        0.0937
     23 C          62.4354   79.3670   12.7076 C.3     1  UNL1        0.0018
     24 C          62.2577   80.7641   13.2236 C.3     1  UNL1        0.0199
     25 C          61.1200   81.0834   14.1477 C.3     1  UNL1        0.0018
     26 C          62.2986   84.2627   12.6004 C.3     1  UNL1        0.1245
     27 C          62.7605   84.6810   11.2359 C.3     1  UNL1        0.1484
     28 O          63.5370   83.7240   10.3809 O.3     1  UNL1       -0.3810
     29 H          63.6526   82.8864   10.8562 H       1  UNL1        0.2105
     30 C          62.4457   86.0563   10.7265 C.3     1  UNL1        0.1075
     31 N          61.7360   87.0391   11.6100 N.am    1  UNL1       -0.2695
     32 C          60.4165   87.6125   11.1854 C.2     1  UNL1        0.4020
     33 O          59.8069   87.2031    9.8774 O.2     1  UNL1       -0.2264
     34 H          62.1361   87.3077   12.4684 H       1  UNL1        0.1528
     35 O          59.7068   88.5953   12.0688 O.3     1  UNL1       -0.4291
     36 C          60.0358   90.0561   11.9815 C.3     1  UNL1        0.2447
     37 C          61.3855   90.4931   11.4940 C.ar    1  UNL1        0.0714
     38 C          61.7473   90.8199   10.0754 C.ar    1  UNL1        0.1053
     39 N          63.1957   91.2087   10.0442 N.ar    1  UNL1       -0.2350
     40 C          63.7290   91.1222   11.4436 C.ar    1  UNL1        0.1343
     41 S          62.6103   90.6800   12.3395 S.2     1  UNL1       -0.0652
     42 C          62.8407   86.4488    9.3337 C.3     1  UNL1        0.0485
     43 C          62.2630   85.7200    8.1569 C.ar    1  UNL1       -0.0204
     44 C          63.1558   84.9095    7.2646 C.ar    1  UNL1       -0.0042
     45 C          62.5781   84.1807    6.0877 C.ar    1  UNL1       -0.0003
     46 C          61.1076   84.2624    5.8030 C.ar    1  UNL1       -0.0000
     47 C          60.2148   85.0728    6.6953 C.ar    1  UNL1       -0.0003
     48 C          60.7925   85.8016    7.8722 C.ar    1  UNL1       -0.0042
@<TRIPOS>BOND
     1    23    24    1
     2    24    25    1
     3    24    22    1
     4    22     1    1
     5     1    26    1
     6    26    27    1
     7    27    28    1
     8    27    30    1
     9    30    42    1
    10    42    43    1
    11    43    44   ar
    12    44    45   ar
    13    45    46   ar
    14    46    47   ar
    15    47    48   ar
    16    30    31    1
    17    31    32   am
    18    32    33    2
    19    32    35    1
    20    35    36    1
    21    36    37    1
    22    37    38   ar
    23    38    39   ar
    24    39    40   ar
    25    40    41   ar
    26     1     2   am
    27     2     3    2
    28     2     4    1
    29     4     5   ar
    30     5     6   ar
    31     6     7   ar
    32     7     8   ar
    33     8     9   ar
    34     9    13    1
    35    13    15    1
    36    15    16    1
    37    16    17    1
    38    17    18    1
    39    18    19    1
    40    18    20    1
    41    20    21    1
    42     9    10   ar
    43    10    11   ar
    44    11    12   ar
    45    48    43   ar
    46    41    37   ar
    47    12     4   ar
    48    11     7   ar
    49    21    15    1
    50    28    29    1
    51    31    34    1
    52    13    14    1
@<TRIPOS>MOLECULE
*****
 48 52 0 0 0
SMALL
GASTEIGER

@<TRIPOS>ATOM
      1 N          63.2651   83.2960   14.1886 N.am    1  UNL1       -0.2735
      2 C          63.9582   83.9397   15.3527 C.2     1  UNL1        0.2492
      3 O          64.8092   83.1124   16.2699 O.2     1  UNL1       -0.2699
      4 C          63.8003   85.4108   15.5997 C.ar    1  UNL1        0.0567
      5 C          63.0141   85.8925   16.7828 C.ar    1  UNL1        0.0063
      6 C          62.8562   87.3636   17.0298 C.ar    1  UNL1        0.0225
      7 C          63.4845   88.3529   16.0936 C.ar    1  UNL1        0.1202
      8 N          63.4998   89.8529   16.0807 N.ar    1  UNL1       -0.1948
      9 C          64.2954   90.2981   14.8897 C.ar    1  UNL1        0.2890
     10 O          64.7719   89.0733   14.1664 O.2     1  UNL1       -0.4239
     11 C          64.2707   87.8712   14.9104 C.ar    1  UNL1        0.1662
     12 C          64.4285   86.4002   14.6635 C.ar    1  UNL1        0.0437
     13 N          64.5670   91.7186   14.4917 N.pl3   1  UNL1       -0.2899
     14 H          64.1688   92.4584   15.0050 H       1  UNL1        0.1511
     15 C          65.4453   92.0121   13.3117 C.3     1  UNL1        0.0760
     16 C          66.9376   91.9779   13.4605 C.3     1  UNL1        0.0370
     17 C          67.8159   92.2713   12.2804 C.3     1  UNL1        0.0738
     18 N          67.2019   92.5989   10.9516 N.3     1  UNL1       -0.2714
     19 C          68.0802   92.8923    9.7715 C.3     1  UNL1        0.0896
     20 C          65.7097   92.6331   10.8028 C.3     1  UNL1        0.0738
     21 C          64.8314   92.3397   11.9829 C.3     1  UNL1        0.0370
     22 C          63.4230   81.8248   13.9417 C.3     1  UNL1        0.0937
     23 C          62.5529   80.5304   11.8639 C.3     1  UNL1        0.0018
     24 C          62.3340   81.0593   13.2504 C.3     1  UNL1        0.0199
     25 C          61.0260   80.8226   13.9456 C.3     1  UNL1        0.0018
     26 C          62.4141   84.1233   13.2714 C.3     1  UNL1        0.1245
     27 C          62.9321   84.5179   11.9201 C.3     1  UNL1        0.1484
     28 O          63.9811   83.6840   11.2462 O.3     1  UNL1       -0.3810
     29 H          64.2118   82.9329   11.8151 H       1  UNL1        0.2105
     30 C          62.4011   85.7463   11.2427 C.3     1  UNL1        0.1075
     31 N          61.3891   85.6182   10.1429 N.am    1  UNL1       -0.2695
     32 C          61.8380   85.5711    8.7124 C.2     1  UNL1        0.4020
     33 O          63.2989   85.6521    8.3817 O.2     1  UNL1       -0.2264
     34 H          60.4303   85.5650   10.3600 H       1  UNL1        0.1528
     35 O          60.8260   85.4430    7.6126 O.3     1  UNL1       -0.4291
     36 C          59.5478   86.2254    7.6747 C.3     1  UNL1        0.2447
     37 C          59.5722   87.7162    7.5096 C.ar    1  UNL1        0.0714
     38 C          60.1614   88.7007    8.4759 C.ar    1  UNL1        0.1053
     39 N          59.9651   90.0771    7.9128 N.ar    1  UNL1       -0.2350
     40 C          59.2545   89.9432    6.5985 C.ar    1  UNL1        0.1343
     41 S          59.0118   88.4841    6.3494 S.2     1  UNL1       -0.0652
     42 C          62.8820   87.1029   11.6651 C.3     1  UNL1        0.0485
     43 C          61.9570   88.2816   11.5958 C.ar    1  UNL1       -0.0204
     44 C          62.4840   89.6258   11.1890 C.ar    1  UNL1       -0.0042
     45 C          61.5589   90.8045   11.1198 C.ar    1  UNL1       -0.0003
     46 C          60.1068   90.6391   11.4574 C.ar    1  UNL1       -0.0000
     47 C          59.5797   89.2950   11.8642 C.ar    1  UNL1       -0.0003
     48 C          60.5048   88.1163   11.9334 C.ar    1  UNL1       -0.0042
@<TRIPOS>BOND
     1    23    24    1
     2    24    25    1
     3    24    22    1
     4    22     1    1
     5     1    26    1
     6    26    27    1
     7    27    28    1
     8    27    30    1
     9    30    42    1
    10    42    43    1
    11    43    44   ar
    12    44    45   ar
    13    45    46   ar
    14    46    47   ar
    15    47    48   ar
    16    30    31    1
    17    31    32   am
    18    32    33    2
    19    32    35    1
    20    35    36    1
    21    36    37    1
    22    37    38   ar
    23    38    39   ar
    24    39    40   ar
    25    40    41   ar
    26     1     2   am
    27     2     3    2
    28     2     4    1
    29     4     5   ar
    30     5     6   ar
    31     6     7   ar
    32     7     8   ar
    33     8     9   ar
    34     9    13    1
    35    13    15    1
    36    15    16    1
    37    16    17    1
    38    17    18    1
    39    18    19    1
    40    18    20    1
    41    20    21    1
    42     9    10   ar
    43    10    11   ar
    44    11    12   ar
    45    48    43   ar
    46    41    37   ar
    47    12     4   ar
    48    11     7   ar
    49    21    15    1
    50    28    29    1
    51    31    34    1
    52    13    14    1
@<TRIPOS>MOLECULE
*****
 48 52 0 0 0
SMALL
GASTEIGER

@<TRIPOS>ATOM
      1 N          63.4449   85.3977   13.0857 N.am    1  UNL1       -0.2735
      2 C          62.9083   84.5442   11.9750 C.2     1  UNL1        0.2492
      3 O          62.9054   83.0504   12.1115 O.2     1  UNL1       -0.2699
      4 C          62.3747   85.1844   10.7278 C.ar    1  UNL1        0.0567
      5 C          63.0783   84.9788    9.4192 C.ar    1  UNL1        0.0063
      6 C          62.5447   85.6191    8.1721 C.ar    1  UNL1        0.0225
      7 C          61.3074   86.4648    8.2337 C.ar    1  UNL1        0.1202
      8 N          60.5524   87.2173    7.1782 N.ar    1  UNL1       -0.1948
      9 C          59.3822   87.8879    7.8346 C.ar    1  UNL1        0.2890
     10 O          59.4139   87.5499    9.2957 O.2     1  UNL1       -0.4239
     11 C          60.6038   86.6704    9.5423 C.ar    1  UNL1        0.1662
     12 C          61.1374   86.0302   10.7894 C.ar    1  UNL1        0.0437
     13 N          58.3597   88.7459    7.1501 N.pl3   1  UNL1       -0.2899
     14 H          57.4015   88.6068    7.3284 H       1  UNL1        0.1511
     15 C          58.7972   89.8157    6.1941 C.3     1  UNL1        0.0760
     16 C          60.2517   89.9793    5.8660 C.3     1  UNL1        0.0370
     17 C          60.6892   91.0492    4.9100 C.3     1  UNL1        0.0738
     18 N          59.6721   91.9555    4.2820 N.3     1  UNL1       -0.2714
     19 C          60.1096   93.0254    3.3260 C.3     1  UNL1        0.0896
     20 C          58.2176   91.7919    4.6101 C.3     1  UNL1        0.0738
     21 C          57.7802   90.7220    5.5662 C.3     1  UNL1        0.0370
     22 C          63.9785   84.7575   14.3329 C.3     1  UNL1        0.0937
     23 C          62.7300   85.2023   16.5674 C.3     1  UNL1        0.0018
     24 C          63.0339   84.3032   15.4059 C.3     1  UNL1        0.0199
     25 C          62.3933   82.9497   15.3173 C.3     1  UNL1        0.0018
     26 C          63.4478   86.8915   12.9492 C.3     1  UNL1        0.1245
     27 C          64.1515   87.7364   13.9695 C.3     1  UNL1        0.1484
     28 O          65.0553   87.0948   14.9802 O.3     1  UNL1       -0.3810
     29 H          65.0729   86.1358   14.8355 H       1  UNL1        0.2105
     30 C          63.9514   89.2230   13.9791 C.3     1  UNL1        0.1075
     31 N          65.1175   90.1352   14.2204 N.am    1  UNL1       -0.2695
     32 C          64.9777   91.2998   15.1553 C.2     1  UNL1        0.4020
     33 O          63.6718   91.5523   15.8488 O.2     1  UNL1       -0.2264
     34 H          65.9746   89.9695   13.7652 H       1  UNL1        0.1528
     35 O          66.1437   92.2120   15.3967 O.3     1  UNL1       -0.4291
     36 C          66.3579   93.4053   14.5133 C.3     1  UNL1        0.2447
     37 C          66.6793   93.2149   13.0605 C.ar    1  UNL1        0.0714
     38 C          67.6018   92.1788   12.4900 C.ar    1  UNL1        0.1053
     39 N          67.6274   92.3507   11.0002 N.ar    1  UNL1       -0.2350
     40 C          66.7206   93.4932   10.6498 C.ar    1  UNL1        0.1343
     41 S          66.1347   94.0272   11.9232 S.2     1  UNL1       -0.0652
     42 C          62.5853   89.7974   13.7473 C.3     1  UNL1        0.0485
     43 C          62.0887   90.0099   12.3480 C.ar    1  UNL1       -0.0204
     44 C          63.0643   90.2489   11.2340 C.ar    1  UNL1       -0.0042
     45 C          62.5676   90.4615    9.8346 C.ar    1  UNL1       -0.0003
     46 C          61.0953   90.4351    9.5493 C.ar    1  UNL1       -0.0000
     47 C          60.1196   90.1961   10.6633 C.ar    1  UNL1       -0.0003
     48 C          60.6162   89.9835   12.0626 C.ar    1  UNL1       -0.0042
@<TRIPOS>BOND
     1    23    24    1
     2    24    25    1
     3    24    22    1
     4    22     1    1
     5     1    26    1
     6    26    27    1
     7    27    28    1
     8    27    30    1
     9    30    42    1
    10    42    43    1
    11    43    44   ar
    12    44    45   ar
    13    45    46   ar
    14    46    47   ar
    15    47    48   ar
    16    30    31    1
    17    31    32   am
    18    32    33    2
    19    32    35    1
    20    35    36    1
    21    36    37    1
    22    37    38   ar
    23    38    39   ar
    24    39    40   ar
    25    40    41   ar
    26     1     2   am
    27     2     3    2
    28     2     4    1
    29     4     5   ar
    30     5     6   ar
    31     6     7   ar
    32     7     8   ar
    33     8     9   ar
    34     9    13    1
    35    13    15    1
    36    15    16    1
    37    16    17    1
    38    17    18    1
    39    18    19    1
    40    18    20    1
    41    20    21    1
    42     9    10   ar
    43    10    11   ar
    44    11    12   ar
    45    48    43   ar
    46    41    37   ar
    47    12     4   ar
    48    11     7   ar
    49    21    15    1
    50    28    29    1
    51    31    34    1
    52    13    14    1
@<TRIPOS>MOLECULE
*****
 48 52 0 0 0
SMALL
GASTEIGER

@<TRIPOS>ATOM
      1 N          61.3032   86.6276    8.9406 N.am    1  UNL1       -0.2735
      2 C          60.8899   88.0695    8.9427 C.2     1  UNL1        0.2492
      3 O          59.8672   88.5580    7.9601 O.2     1  UNL1       -0.2699
      4 C          61.4992   89.0230    9.9274 C.ar    1  UNL1        0.0567
      5 C          60.8967   89.1785   11.2922 C.ar    1  UNL1        0.0063
      6 C          61.5060   90.1320   12.2768 C.ar    1  UNL1        0.0225
      7 C          62.7179   90.9299   11.8967 C.ar    1  UNL1        0.1202
      8 N          63.5318   91.9397   12.6505 N.ar    1  UNL1       -0.1948
      9 C          64.6373   92.4083   11.7515 C.ar    1  UNL1        0.2890
     10 O          64.5067   91.6881   10.4421 O.2     1  UNL1       -0.4239
     11 C          63.3205   90.7744   10.5319 C.ar    1  UNL1        0.1662
     12 C          62.7111   89.8210    9.5473 C.ar    1  UNL1        0.0437
     13 N          65.6888   93.4195   12.1005 N.pl3   1  UNL1       -0.2899
     14 H          65.7377   94.2695   11.6062 H       1  UNL1        0.1511
     15 C          66.6659   93.1356   13.2026 C.3     1  UNL1        0.0760
     16 C          67.7018   92.0646   13.0291 C.3     1  UNL1        0.0370
     17 C          68.6789   91.7807   14.1312 C.3     1  UNL1        0.0738
     18 N          68.6201   92.5678   15.4068 N.3     1  UNL1       -0.2714
     19 C          69.5972   92.2839   16.5090 C.3     1  UNL1        0.0896
     20 C          67.5842   93.6387   15.5803 C.3     1  UNL1        0.0738
     21 C          66.6071   93.9226   14.4782 C.3     1  UNL1        0.0370
     22 C          60.6939   85.6741    7.9559 C.3     1  UNL1        0.0937
     23 C          63.0528   84.8520    7.2421 C.3     1  UNL1        0.0018
     24 C          61.5721   84.9100    7.0098 C.3     1  UNL1        0.0199
     25 C          60.9695   84.2041    5.8315 C.3     1  UNL1        0.0018
     26 C          62.3259   86.1391    9.9232 C.3     1  UNL1        0.1245
     27 C          61.9231   85.8338   11.3356 C.3     1  UNL1        0.1484
     28 O          60.6478   86.3960   11.8900 O.3     1  UNL1       -0.3810
     29 H          60.2075   86.9300   11.2104 H       1  UNL1        0.2105
     30 C          62.7958   84.9663   12.1934 C.3     1  UNL1        0.1075
     31 N          62.7592   85.1089   13.6863 N.am    1  UNL1       -0.2695
     32 C          64.0109   84.9130   14.4893 C.2     1  UNL1        0.4020
     33 O          65.2992   84.5746   13.7995 O.2     1  UNL1       -0.2264
     34 H          61.9136   85.3310   14.1390 H       1  UNL1        0.1528
     35 O          63.9743   85.0556   15.9820 O.3     1  UNL1       -0.4291
     36 C          63.2660   86.2208   16.6070 C.3     1  UNL1        0.2447
     37 C          63.5348   87.6127   16.1167 C.ar    1  UNL1        0.0714
     38 C          64.3422   87.9809   14.9073 C.ar    1  UNL1        0.1053
     39 N          64.3498   89.4765   14.7928 N.ar    1  UNL1       -0.2350
     40 C          63.5470   90.0326   15.9314 C.ar    1  UNL1        0.1343
     41 S          63.0433   88.8807   16.7495 S.2     1  UNL1       -0.0652
     42 C          63.7050   83.9562   11.5586 C.3     1  UNL1        0.0485
     43 C          63.3406   82.5014   11.5795 C.ar    1  UNL1       -0.0204
     44 C          63.4155   81.6912   10.3193 C.ar    1  UNL1       -0.0042
     45 C          63.0511   80.2363   10.3403 C.ar    1  UNL1       -0.0003
     46 C          62.6117   79.5915   11.6214 C.ar    1  UNL1       -0.0000
     47 C          62.5367   80.4017   12.8815 C.ar    1  UNL1       -0.0003
     48 C          62.9011   81.8566   12.8606 C.ar    1  UNL1       -0.0042
@<TRIPOS>BOND
     1    23    24    1
     2    24    25    1
     3    24    22    1
     4    22     1    1
     5     1    26    1
     6    26    27    1
     7    27    28    1
     8    27    30    1
     9    30    42    1
    10    42    43    1
    11    43    44   ar
    12    44    45   ar
    13    45    46   ar
    14    46    47   ar
    15    47    48   ar
    16    30    31    1
    17    31    32   am
    18    32    33    2
    19    32    35    1
    20    35    36    1
    21    36    37    1
    22    37    38   ar
    23    38    39   ar
    24    39    40   ar
    25    40    41   ar
    26     1     2   am
    27     2     3    2
    28     2     4    1
    29     4     5   ar
    30     5     6   ar
    31     6     7   ar
    32     7     8   ar
    33     8     9   ar
    34     9    13    1
    35    13    15    1
    36    15    16    1
    37    16    17    1
    38    17    18    1
    39    18    19    1
    40    18    20    1
    41    20    21    1
    42     9    10   ar
    43    10    11   ar
    44    11    12   ar
    45    48    43   ar
    46    41    37   ar
    47    12     4   ar
    48    11     7   ar
    49    21    15    1
    50    28    29    1
    51    31    34    1
    52    13    14    1
@<TRIPOS>MOLECULE
*****
 48 52 0 0 0
SMALL
GASTEIGER

@<TRIPOS>ATOM
      1 N          59.6863   88.9136    7.6054 N.am    1  UNL1       -0.2735
      2 C          59.4977   87.4332    7.7561 C.2     1  UNL1        0.2492
      3 O          58.2473   86.7806    7.2456 O.2     1  UNL1       -0.2699
      4 C          60.5596   86.6053    8.4173 C.ar    1  UNL1        0.0567
      5 C          61.5797   85.8887    7.5832 C.ar    1  UNL1        0.0063
      6 C          62.6415   85.0608    8.2443 C.ar    1  UNL1        0.0225
      7 C          62.6831   84.9495    9.7396 C.ar    1  UNL1        0.1202
      8 N          63.6043   84.2123   10.6660 N.ar    1  UNL1       -0.1948
      9 C          63.1535   84.4733   12.0726 C.ar    1  UNL1        0.2890
     10 O          61.9537   85.3718   12.0156 O.2     1  UNL1       -0.4239
     11 C          61.6630   85.6661   10.5737 C.ar    1  UNL1        0.1662
     12 C          60.6012   86.4940    9.9125 C.ar    1  UNL1        0.0437
     13 N          63.7905   83.9311   13.3177 N.pl3   1  UNL1       -0.2899
     14 H          64.3782   83.1429   13.2668 H       1  UNL1        0.1511
     15 C          63.5322   84.5899   14.6403 C.3     1  UNL1        0.0760
     16 C          62.1695   84.5137   15.2626 C.3     1  UNL1        0.0370
     17 C          61.9112   85.1725   16.5853 C.3     1  UNL1        0.0738
     18 N          63.0156   85.9074   17.2855 N.3     1  UNL1       -0.2714
     19 C          62.7573   86.5662   18.6081 C.3     1  UNL1        0.0896
     20 C          64.3782   85.9835   16.6631 C.3     1  UNL1        0.0738
     21 C          64.6365   85.3248   15.3405 C.3     1  UNL1        0.0370
     22 C          58.6245   89.7415    6.9442 C.3     1  UNL1        0.0937
     23 C          60.3641   90.5906    5.2114 C.3     1  UNL1        0.0018
     24 C          58.9576   90.5591    5.7316 C.3     1  UNL1        0.0199
     25 C          57.8840   91.3453    5.0390 C.3     1  UNL1        0.0018
     26 C          60.9367   89.5662    8.1159 C.3     1  UNL1        0.1245
     27 C          61.0523   89.9349    9.5654 C.3     1  UNL1        0.1484
     28 O          59.8233   90.0000   10.4229 O.3     1  UNL1       -0.3810
     29 H          59.0445   89.7774    9.8893 H       1  UNL1        0.2105
     30 C          62.3967   90.2385   10.1572 C.3     1  UNL1        0.1075
     31 N          63.1089   89.2003   10.9728 N.am    1  UNL1       -0.2695
     32 C          62.6830   88.9350   12.3863 C.2     1  UNL1        0.4020
     33 O          61.5448   89.7078   12.9843 O.2     1  UNL1       -0.2264
     34 H          63.8559   88.6931   10.5803 H       1  UNL1        0.1528
     35 O          63.3951   87.8969   13.2019 O.3     1  UNL1       -0.4291
     36 C          64.3992   88.3139   14.2353 C.3     1  UNL1        0.2447
     37 C          64.0912   89.4506   15.1645 C.ar    1  UNL1        0.0714
     38 C          63.0228   89.4642   16.2172 C.ar    1  UNL1        0.1053
     39 N          63.0689   90.7951   16.9074 N.ar    1  UNL1       -0.2350
     40 C          64.1659   91.6042   16.2812 C.ar    1  UNL1        0.1343
     41 S          64.7977   90.7732   15.2040 S.2     1  UNL1       -0.0652
     42 C          63.0290   91.5801    9.9334 C.3     1  UNL1        0.0485
     43 C          64.2878   91.9469   10.6620 C.ar    1  UNL1       -0.0204
     44 C          65.5357   92.2618    9.8916 C.ar    1  UNL1       -0.0042
     45 C          66.7945   92.6285   10.6204 C.ar    1  UNL1       -0.0003
     46 C          66.8053   92.6804   12.1194 C.ar    1  UNL1       -0.0000
     47 C          65.5574   92.3655   12.8898 C.ar    1  UNL1       -0.0003
     48 C          64.2987   91.9987   12.1611 C.ar    1  UNL1       -0.0042
@<TRIPOS>BOND
     1    23    24    1
     2    24    25    1
     3    24    22    1
     4    22     1    1
     5     1    26    1
     6    26    27    1
     7    27    28    1
     8    27    30    1
     9    30    42    1
    10    42    43    1
    11    43    44   ar
    12    44    45   ar
    13    45    46   ar
    14    46    47   ar
    15    47    48   ar
    16    30    31    1
    17    31    32   am
    18    32    33    2
    19    32    35    1
    20    35    36    1
    21    36    37    1
    22    37    38   ar
    23    38    39   ar
    24    39    40   ar
    25    40    41   ar
    26     1     2   am
    27     2     3    2
    28     2     4    1
    29     4     5   ar
    30     5     6   ar
    31     6     7   ar
    32     7     8   ar
    33     8     9   ar
    34     9    13    1
    35    13    15    1
    36    15    16    1
    37    16    17    1
    38    17    18    1
    39    18    19    1
    40    18    20    1
    41    20    21    1
    42     9    10   ar
    43    10    11   ar
    44    11    12   ar
    45    48    43   ar
    46    41    37   ar
    47    12     4   ar
    48    11     7   ar
    49    21    15    1
    50    28    29    1
    51    31    34    1
    52    13    14    1
