@<TRIPOS>MOLECULE
*****
 33 36 0 0 0
SMALL
GASTEIGER

@<TRIPOS>ATOM
      1 C          62.7891   86.4126   12.2822 C.ar    1  UNL1        0.0842
      2 N          63.6243   87.3577   13.0940 N.ar    1  UNL1       -0.2437
      3 C          63.6255   88.8228   12.7726 C.ar    1  UNL1        0.0988
      4 C          62.7915   89.3429   11.6395 C.ar    1  UNL1        0.0207
      5 C          61.9563   88.3977   10.8277 C.ar    1  UNL1        0.0043
      6 C          61.1222   88.9177    9.6946 C.ar    1  UNL1        0.0203
      7 C          60.2870   87.9726    8.8828 C.ar    1  UNL1        0.1252
      8 C          60.2858   86.5074    9.2041 C.ar    1  UNL1        0.0202
      9 C          61.1198   85.9874   10.3372 C.ar    1  UNL1        0.0029
     10 C          61.9551   86.9326   11.1490 C.ar    1  UNL1        0.0179
     11 C          62.7621   84.4930   14.0328 C.ar    1  UNL1        0.1400
     12 C          62.7609   83.0279   14.3541 C.ar    1  UNL1        0.0408
     13 C          62.7854   82.0170   13.2461 C.ar    1  UNL1        0.0744
     14 C          62.8111   82.4713   11.8168 C.ar    1  UNL1        0.0041
     15 C          62.8124   83.9365   11.4955 C.ar    1  UNL1        0.0045
     16 C          62.7879   84.9473   12.6035 C.ar    1  UNL1        0.0516
     17 C          62.7842   80.5518   13.5675 C.3     1  UNL1        0.4187
     18 F          62.7829   79.0867   13.8888 F       1  UNL1       -0.1659
     19 F          61.2933   80.5176   13.4058 F       1  UNL1       -0.1659
     20 F          64.2750   80.5860   13.7292 F       1  UNL1       -0.1659
     21 C          63.8852   85.5901   16.1029 C.3     1  UNL1        0.2525
     22 O          62.7376   85.5039   15.1408 O.3     1  UNL1       -0.4714
     23 S          59.4530   88.4926    7.7497 S.O2    1  UNL1        0.0747
     24 O          59.1425   87.0856    7.3325 O.2     1  UNL1       -0.1499
     25 O          59.7635   89.8996    8.1668 O.2     1  UNL1       -0.1499
     26 N          58.6189   89.0126    6.6165 N.pl3   1  UNL1       -0.1988
     27 H          57.7435   88.6061    6.4227 H       1  UNL1        0.1753
     28 C          59.1188   90.1521    5.7787 C.ar    1  UNL1        0.1503
     29 C          58.1659   91.2096    5.3057 C.ar    1  UNL1        0.0563
     30 C          58.6657   92.3490    4.4680 C.ar    1  UNL1        0.1036
     31 N          60.1184   92.4310    4.1031 N.ar    1  UNL1       -0.2223
     32 C          61.0713   91.3734    4.5761 C.ar    1  UNL1        0.2001
     33 N          60.5714   90.2340    5.4139 N.ar    1  UNL1       -0.2077
@<TRIPOS>BOND
     1    21    22    1
     2    22    11    1
     3    11    12   ar
     4    12    13   ar
     5    13    17    1
     6    17    18    1
     7    17    19    1
     8    17    20    1
     9    13    14   ar
    10    14    15   ar
    11    15    16   ar
    12    16     1    1
    13     1     2   ar
    14     2     3   ar
    15     3     4   ar
    16     4     5   ar
    17     5     6   ar
    18     6     7   ar
    19     7    23    1
    20    23    24    2
    21    23    25    2
    22    23    26    1
    23    26    28    1
    24    28    29   ar
    25    29    30   ar
    26    30    31   ar
    27    31    32   ar
    28    32    33   ar
    29     7     8   ar
    30     8     9   ar
    31     9    10   ar
    32    16    11   ar
    33    10     1   ar
    34    10     5   ar
    35    33    28   ar
    36    26    27    1
@<TRIPOS>MOLECULE
*****
 33 36 0 0 0
SMALL
GASTEIGER

@<TRIPOS>ATOM
      1 C          64.3407   90.7026   14.7966 C.ar    1  UNL1        0.0842
      2 N          63.8981   91.6159   15.9012 N.ar    1  UNL1       -0.2437
      3 C          63.2504   91.0484   17.1293 C.ar    1  UNL1        0.0988
      4 C          63.0451   89.5677   17.2529 C.ar    1  UNL1        0.0207
      5 C          63.4877   88.6544   16.1484 C.ar    1  UNL1        0.0043
      6 C          63.2824   87.1736   16.2720 C.ar    1  UNL1        0.0203
      7 C          63.7249   86.2603   15.1674 C.ar    1  UNL1        0.1252
      8 C          64.3727   86.8278   13.9392 C.ar    1  UNL1        0.0202
      9 C          64.5780   88.3085   13.8156 C.ar    1  UNL1        0.0029
     10 C          64.1354   89.2218   14.9202 C.ar    1  UNL1        0.0179
     11 C          66.4298   91.6839   13.6039 C.ar    1  UNL1        0.1400
     12 C          67.0776   92.2513   12.3757 C.ar    1  UNL1        0.0408
     13 C          66.2841   92.4049   11.1121 C.ar    1  UNL1        0.0744
     14 C          64.8427   91.9910   11.0766 C.ar    1  UNL1        0.0041
     15 C          64.1949   91.4236   12.3048 C.ar    1  UNL1        0.0045
     16 C          64.9885   91.2700   13.5684 C.ar    1  UNL1        0.0516
     17 C          66.9319   92.9723    9.8840 C.3     1  UNL1        0.4187
     18 F          67.5797   93.5397    8.6558 F       1  UNL1       -0.1659
     19 F          67.8190   91.7661    9.7946 F       1  UNL1       -0.1659
     20 F          66.0448   94.1785    9.9733 F       1  UNL1       -0.1659
     21 C          67.3899   92.6974   15.7950 C.3     1  UNL1        0.2525
     22 O          67.2233   91.5303   14.8675 O.3     1  UNL1       -0.4714
     23 S          63.5197   84.7796   15.2910 S.O2    1  UNL1        0.0747
     24 O          62.0751   85.0077   15.6244 O.2     1  UNL1       -0.1499
     25 O          64.9643   84.5515   14.9576 O.2     1  UNL1       -0.1499
     26 N          63.3145   83.2989   15.4146 N.pl3   1  UNL1       -0.1988
     27 H          63.3123   82.8747   16.3030 H       1  UNL1        0.1753
     28 C          63.1125   82.4644   14.1845 C.ar    1  UNL1        0.1503
     29 C          63.2888   83.0759   12.8262 C.ar    1  UNL1        0.0563
     30 C          63.0869   82.2415   11.5962 C.ar    1  UNL1        0.1036
     31 N          62.7087   80.7956   11.7244 N.ar    1  UNL1       -0.2223
     32 C          62.5325   80.1841   13.0827 C.ar    1  UNL1        0.2001
     33 N          62.7344   81.0186   14.3128 N.ar    1  UNL1       -0.2077
@<TRIPOS>BOND
     1    21    22    1
     2    22    11    1
     3    11    12   ar
     4    12    13   ar
     5    13    17    1
     6    17    18    1
     7    17    19    1
     8    17    20    1
     9    13    14   ar
    10    14    15   ar
    11    15    16   ar
    12    16     1    1
    13     1     2   ar
    14     2     3   ar
    15     3     4   ar
    16     4     5   ar
    17     5     6   ar
    18     6     7   ar
    19     7    23    1
    20    23    24    2
    21    23    25    2
    22    23    26    1
    23    26    28    1
    24    28    29   ar
    25    29    30   ar
    26    30    31   ar
    27    31    32   ar
    28    32    33   ar
    29     7     8   ar
    30     8     9   ar
    31     9    10   ar
    32    16    11   ar
    33    10     1   ar
    34    10     5   ar
    35    33    28   ar
    36    26    27    1
@<TRIPOS>MOLECULE
*****
 33 36 0 0 0
SMALL
GASTEIGER

@<TRIPOS>ATOM
      1 C          62.1245   87.0988   10.7486 C.ar    1  UNL1        0.0842
      2 N          61.2941   87.5355    9.5784 N.ar    1  UNL1       -0.2437
      3 C          61.0674   88.9961    9.3231 C.ar    1  UNL1        0.0988
      4 C          61.6712   90.0200   10.2380 C.ar    1  UNL1        0.0207
      5 C          62.5017   89.5832   11.4083 C.ar    1  UNL1        0.0043
      6 C          63.1055   90.6071   12.3232 C.ar    1  UNL1        0.0203
      7 C          63.9359   90.1703   13.4935 C.ar    1  UNL1        0.1252
      8 C          64.1626   88.7097   13.7489 C.ar    1  UNL1        0.0202
      9 C          63.5588   87.6858   12.8339 C.ar    1  UNL1        0.0029
     10 C          62.7283   88.1226   11.6636 C.ar    1  UNL1        0.0179
     11 C          62.9168   84.7666    9.9221 C.ar    1  UNL1        0.1400
     12 C          63.1435   83.3060   10.1774 C.ar    1  UNL1        0.0408
     13 C          62.8046   82.7168   11.5146 C.ar    1  UNL1        0.0744
     14 C          62.2389   83.5884   12.5965 C.ar    1  UNL1        0.0041
     15 C          62.0122   85.0491   12.3411 C.ar    1  UNL1        0.0045
     16 C          62.3512   85.6381   11.0040 C.ar    1  UNL1        0.0516
     17 C          63.0313   81.2563   11.7699 C.3     1  UNL1        0.4187
     18 F          63.2579   79.7957   12.0252 F       1  UNL1       -0.1659
     19 F          62.7634   81.4699   13.2302 F       1  UNL1       -0.1659
     20 F          63.2991   81.0426   10.3096 F       1  UNL1       -0.1659
     21 C          62.4497   84.9843    7.3756 C.3     1  UNL1        0.2525
     22 O          63.2558   85.3557    8.5849 O.3     1  UNL1       -0.4714
     23 S          64.5397   91.1942   14.4085 S.O2    1  UNL1        0.0747
     24 O          64.5911   92.1762   13.2757 O.2     1  UNL1       -0.1499
     25 O          64.4884   90.2122   15.5412 O.2     1  UNL1       -0.1499
     26 N          65.1435   92.2180   15.3234 N.pl3   1  UNL1       -0.1988
     27 H          64.5785   92.6852   15.9805 H       1  UNL1        0.1753
     28 C          66.6082   92.5301   15.2372 C.ar    1  UNL1        0.1503
     29 C          67.4558   91.8680   14.1916 C.ar    1  UNL1        0.0563
     30 C          68.9204   92.1800   14.1054 C.ar    1  UNL1        0.1036
     31 N          69.5375   93.1543   15.0646 N.ar    1  UNL1       -0.2223
     32 C          68.6899   93.8164   16.1102 C.ar    1  UNL1        0.2001
     33 N          67.2252   93.5043   16.1964 N.ar    1  UNL1       -0.2077
@<TRIPOS>BOND
     1    21    22    1
     2    22    11    1
     3    11    12   ar
     4    12    13   ar
     5    13    17    1
     6    17    18    1
     7    17    19    1
     8    17    20    1
     9    13    14   ar
    10    14    15   ar
    11    15    16   ar
    12    16     1    1
    13     1     2   ar
    14     2     3   ar
    15     3     4   ar
    16     4     5   ar
    17     5     6   ar
    18     6     7   ar
    19     7    23    1
    20    23    24    2
    21    23    25    2
    22    23    26    1
    23    26    28    1
    24    28    29   ar
    25    29    30   ar
    26    30    31   ar
    27    31    32   ar
    28    32    33   ar
    29     7     8   ar
    30     8     9   ar
    31     9    10   ar
    32    16    11   ar
    33    10     1   ar
    34    10     5   ar
    35    33    28   ar
    36    26    27    1
@<TRIPOS>MOLECULE
*****
 33 36 0 0 0
SMALL
GASTEIGER

@<TRIPOS>ATOM
      1 C          62.7648   86.4752   12.3380 C.ar    1  UNL1        0.0842
      2 N          63.6155   87.4275   13.1251 N.ar    1  UNL1       -0.2437
      3 C          63.6370   88.8843   12.7685 C.ar    1  UNL1        0.0988
      4 C          62.8078   89.3889   11.6249 C.ar    1  UNL1        0.0207
      5 C          61.9571   88.4366   10.8379 C.ar    1  UNL1        0.0043
      6 C          61.1279   88.9412    9.6943 C.ar    1  UNL1        0.0203
      7 C          60.2772   87.9889    8.9072 C.ar    1  UNL1        0.1252
      8 C          60.2557   86.5320    9.2638 C.ar    1  UNL1        0.0202
      9 C          61.0849   86.0274   10.4074 C.ar    1  UNL1        0.0029
     10 C          61.9356   86.9798   11.1944 C.ar    1  UNL1        0.0179
     11 C          63.0971   83.9885   11.6630 C.ar    1  UNL1        0.1400
     12 C          63.0756   82.5316   12.0195 C.ar    1  UNL1        0.0408
     13 C          62.7003   82.1046   13.4076 C.ar    1  UNL1        0.0744
     14 C          62.3464   83.1345   14.4392 C.ar    1  UNL1        0.0041
     15 C          62.3679   84.5914   14.0827 C.ar    1  UNL1        0.0045
     16 C          62.7433   85.0183   12.6946 C.ar    1  UNL1        0.0516
     17 C          62.6787   80.6478   13.7641 C.3     1  UNL1        0.4187
     18 F          62.6572   79.1909   14.1206 F       1  UNL1       -0.1659
     19 F          61.2032   80.6045   13.4983 F       1  UNL1       -0.1659
     20 F          64.1543   80.6910   14.0299 F       1  UNL1       -0.1659
     21 C          64.1003   83.4324    9.3318 C.3     1  UNL1        0.2525
     22 O          63.4725   84.4155   10.2749 O.3     1  UNL1       -0.4714
     23 S          59.4480   88.4935    7.7636 S.O2    1  UNL1        0.0747
     24 O          59.1107   87.0817    7.3853 O.2     1  UNL1       -0.1499
     25 O          59.7853   89.9052    8.1419 O.2     1  UNL1       -0.1499
     26 N          58.6188   88.9980    6.6200 N.pl3   1  UNL1       -0.1988
     27 H          57.7494   88.5813    6.4209 H       1  UNL1        0.1753
     28 C          59.1143   90.1376    5.7798 C.ar    1  UNL1        0.1503
     29 C          58.1565   91.1875    5.3000 C.ar    1  UNL1        0.0563
     30 C          58.6519   92.3271    4.4598 C.ar    1  UNL1        0.1036
     31 N          60.1053   92.4167    4.0993 N.ar    1  UNL1       -0.2223
     32 C          61.0631   91.3668    4.5791 C.ar    1  UNL1        0.2001
     33 N          60.5676   90.2272    5.4194 N.ar    1  UNL1       -0.2077
@<TRIPOS>BOND
     1    21    22    1
     2    22    11    1
     3    11    12   ar
     4    12    13   ar
     5    13    17    1
     6    17    18    1
     7    17    19    1
     8    17    20    1
     9    13    14   ar
    10    14    15   ar
    11    15    16   ar
    12    16     1    1
    13     1     2   ar
    14     2     3   ar
    15     3     4   ar
    16     4     5   ar
    17     5     6   ar
    18     6     7   ar
    19     7    23    1
    20    23    24    2
    21    23    25    2
    22    23    26    1
    23    26    28    1
    24    28    29   ar
    25    29    30   ar
    26    30    31   ar
    27    31    32   ar
    28    32    33   ar
    29     7     8   ar
    30     8     9   ar
    31     9    10   ar
    32    16    11   ar
    33    10     1   ar
    34    10     5   ar
    35    33    28   ar
    36    26    27    1
@<TRIPOS>MOLECULE
*****
 33 36 0 0 0
SMALL
GASTEIGER

@<TRIPOS>ATOM
      1 C          63.1565   85.0685   12.6379 C.ar    1  UNL1        0.0842
      2 N          63.1864   83.7967   13.4326 N.ar    1  UNL1       -0.2437
      3 C          63.4987   83.8360   14.8992 C.ar    1  UNL1        0.0988
      4 C          63.7812   85.1470   15.5710 C.ar    1  UNL1        0.0207
      5 C          63.7514   86.4188   14.7763 C.ar    1  UNL1        0.0043
      6 C          64.0338   87.7298   15.4482 C.ar    1  UNL1        0.0203
      7 C          64.0040   89.0016   14.6535 C.ar    1  UNL1        0.1252
      8 C          63.6916   88.9624   13.1869 C.ar    1  UNL1        0.0202
      9 C          63.4091   87.6514   12.5150 C.ar    1  UNL1        0.0029
     10 C          63.4390   86.3796   13.3098 C.ar    1  UNL1        0.0179
     11 C          61.6954   85.8261   10.6276 C.ar    1  UNL1        0.1400
     12 C          61.3830   85.7869    9.1610 C.ar    1  UNL1        0.0408
     13 C          62.2194   84.9510    8.2381 C.ar    1  UNL1        0.0744
     14 C          63.3682   84.1543    8.7817 C.ar    1  UNL1        0.0041
     15 C          63.6805   84.1935   10.2484 C.ar    1  UNL1        0.0045
     16 C          62.8441   85.0293   11.1713 C.ar    1  UNL1        0.0516
     17 C          61.9070   84.9119    6.7715 C.3     1  UNL1        0.4187
     18 F          61.5946   84.8727    5.3050 F       1  UNL1       -0.1659
     19 F          63.3290   84.5350    6.4787 F       1  UNL1       -0.1659
     20 F          60.4850   85.2887    7.0644 F       1  UNL1       -0.1659
     21 C          60.1868   87.9011   11.0381 C.3     1  UNL1        0.2525
     22 O          60.8590   86.6620   11.5506 O.3     1  UNL1       -0.4714
     23 S          64.2865   90.3126   15.3254 S.O2    1  UNL1        0.0747
     24 O          65.4626   90.5238   14.4187 O.2     1  UNL1       -0.1499
     25 O          63.1103   90.1014   16.2320 O.2     1  UNL1       -0.1499
     26 N          64.5690   91.6237   15.9973 N.pl3   1  UNL1       -0.1988
     27 H          63.9708   91.9521   16.7069 H       1  UNL1        0.1753
     28 C          65.7628   92.4343   15.5878 C.ar    1  UNL1        0.1503
     29 C          67.0192   92.3849   16.4058 C.ar    1  UNL1        0.0563
     30 C          68.2131   93.1955   15.9964 C.ar    1  UNL1        0.1036
     31 N          68.1506   94.0556   14.7691 N.ar    1  UNL1       -0.2223
     32 C          66.8942   94.1051   13.9511 C.ar    1  UNL1        0.2001
     33 N          65.7003   93.2944   14.3605 N.ar    1  UNL1       -0.2077
@<TRIPOS>BOND
     1    21    22    1
     2    22    11    1
     3    11    12   ar
     4    12    13   ar
     5    13    17    1
     6    17    18    1
     7    17    19    1
     8    17    20    1
     9    13    14   ar
    10    14    15   ar
    11    15    16   ar
    12    16     1    1
    13     1     2   ar
    14     2     3   ar
    15     3     4   ar
    16     4     5   ar
    17     5     6   ar
    18     6     7   ar
    19     7    23    1
    20    23    24    2
    21    23    25    2
    22    23    26    1
    23    26    28    1
    24    28    29   ar
    25    29    30   ar
    26    30    31   ar
    27    31    32   ar
    28    32    33   ar
    29     7     8   ar
    30     8     9   ar
    31     9    10   ar
    32    16    11   ar
    33    10     1   ar
    34    10     5   ar
    35    33    28   ar
    36    26    27    1
@<TRIPOS>MOLECULE
*****
 33 36 0 0 0
SMALL
GASTEIGER

@<TRIPOS>ATOM
      1 C          63.1419   85.7630   15.1732 C.ar    1  UNL1        0.0842
      2 N          62.5795   85.3871   16.5120 N.ar    1  UNL1       -0.2437
      3 C          62.4795   86.4157   17.5991 C.ar    1  UNL1        0.0988
      4 C          62.9419   87.8203   17.3474 C.ar    1  UNL1        0.0207
      5 C          63.5043   88.1962   16.0086 C.ar    1  UNL1        0.0043
      6 C          63.9667   89.6008   15.7569 C.ar    1  UNL1        0.0203
      7 C          64.5291   89.9767   14.4181 C.ar    1  UNL1        0.1252
      8 C          64.6291   88.9480   13.3310 C.ar    1  UNL1        0.0202
      9 C          64.1667   87.5434   13.5827 C.ar    1  UNL1        0.0029
     10 C          63.6043   87.1675   14.9215 C.ar    1  UNL1        0.0179
     11 C          62.5110   84.9372   12.7920 C.ar    1  UNL1        0.1400
     12 C          62.6109   83.9086   11.7049 C.ar    1  UNL1        0.0408
     13 C          63.4419   82.6770   11.9117 C.ar    1  UNL1        0.0744
     14 C          64.1729   82.4741   13.2058 C.ar    1  UNL1        0.0041
     15 C          64.0729   83.5028   14.2929 C.ar    1  UNL1        0.0045
     16 C          63.2419   84.7343   14.0860 C.ar    1  UNL1        0.0516
     17 C          63.5419   81.6484   10.8246 C.3     1  UNL1        0.4187
     18 F          63.6419   80.6198    9.7375 F       1  UNL1       -0.1659
     19 F          62.7753   80.6774   11.6728 F       1  UNL1       -0.1659
     20 F          64.3084   82.6194    9.9764 F       1  UNL1       -0.1659
     21 C          61.2934   86.5884   11.1979 C.3     1  UNL1        0.2525
     22 O          61.6800   86.1688   12.5852 O.3     1  UNL1       -0.4714
     23 S          64.9915   91.3813   14.1665 S.O2    1  UNL1        0.0747
     24 O          66.2312   91.1169   14.9685 O.2     1  UNL1       -0.1499
     25 O          63.7518   91.6457   13.3644 O.2     1  UNL1       -0.1499
     26 N          65.4539   92.7859   13.9148 N.pl3   1  UNL1       -0.1988
     27 H          65.3291   93.4764   14.6053 H       1  UNL1        0.1753
     28 C          66.1064   93.1383   12.6109 C.ar    1  UNL1        0.1503
     29 C          66.8088   92.0797   11.8134 C.ar    1  UNL1        0.0563
     30 C          67.4613   92.4322   10.5096 C.ar    1  UNL1        0.1036
     31 N          67.4114   93.8433   10.0031 N.ar    1  UNL1       -0.2223
     32 C          66.7089   94.9019   10.8006 C.ar    1  UNL1        0.2001
     33 N          66.0564   94.5494   12.1045 N.ar    1  UNL1       -0.2077
@<TRIPOS>BOND
     1    21    22    1
     2    22    11    1
     3    11    12   ar
     4    12    13   ar
     5    13    17    1
     6    17    18    1
     7    17    19    1
     8    17    20    1
     9    13    14   ar
    10    14    15   ar
    11    15    16   ar
    12    16     1    1
    13     1     2   ar
    14     2     3   ar
    15     3     4   ar
    16     4     5   ar
    17     5     6   ar
    18     6     7   ar
    19     7    23    1
    20    23    24    2
    21    23    25    2
    22    23    26    1
    23    26    28    1
    24    28    29   ar
    25    29    30   ar
    26    30    31   ar
    27    31    32   ar
    28    32    33   ar
    29     7     8   ar
    30     8     9   ar
    31     9    10   ar
    32    16    11   ar
    33    10     1   ar
    34    10     5   ar
    35    33    28   ar
    36    26    27    1
@<TRIPOS>MOLECULE
*****
 33 36 0 0 0
SMALL
GASTEIGER

@<TRIPOS>ATOM
      1 C          60.6831   87.9949   10.3949 C.ar    1  UNL1        0.0842
      2 N          59.4013   87.8475   11.1597 N.ar    1  UNL1       -0.2437
      3 C          59.0875   88.7873   12.2858 C.ar    1  UNL1        0.0988
      4 C          60.0556   89.8747   12.6471 C.ar    1  UNL1        0.0207
      5 C          61.3374   90.0222   11.8822 C.ar    1  UNL1        0.0043
      6 C          62.3055   91.1095   12.2435 C.ar    1  UNL1        0.0203
      7 C          63.5874   91.2570   11.4786 C.ar    1  UNL1        0.1252
      8 C          63.9012   90.3171   10.3525 C.ar    1  UNL1        0.0202
      9 C          62.9331   89.2297    9.9912 C.ar    1  UNL1        0.0029
     10 C          61.6512   89.0823   10.7561 C.ar    1  UNL1        0.0179
     11 C          60.1475   87.0558    8.0324 C.ar    1  UNL1        0.1400
     12 C          60.4613   86.1160    6.9063 C.ar    1  UNL1        0.0408
     13 C          61.6246   85.1753    7.0164 C.ar    1  UNL1        0.0744
     14 C          62.4740   85.1746    8.2527 C.ar    1  UNL1        0.0041
     15 C          62.1602   86.1145    9.3789 C.ar    1  UNL1        0.0045
     16 C          60.9970   87.0550    9.2687 C.ar    1  UNL1        0.0516
     17 C          61.9384   84.2355    5.8903 C.3     1  UNL1        0.4187
     18 F          62.2522   83.2957    4.7641 F       1  UNL1       -0.1659
     19 F          60.5072   83.7872    5.8656 F       1  UNL1       -0.1659
     20 F          63.3696   84.6838    5.9149 F       1  UNL1       -0.1659
     21 C          59.0660   89.1872    7.0137 C.3     1  UNL1        0.2525
     22 O          58.9842   87.9964    7.9223 O.3     1  UNL1       -0.4714
     23 S          64.5555   92.3443   11.8399 S.O2    1  UNL1        0.0747
     24 O          64.3524   92.0417   13.2949 O.2     1  UNL1       -0.1499
     25 O          64.7585   92.6470   10.3848 O.2     1  UNL1       -0.1499
     26 N          65.5235   93.4317   12.2011 N.pl3   1  UNL1       -0.1988
     27 H          65.4021   94.3391   11.8392 H       1  UNL1        0.1753
     28 C          66.6767   93.1363   13.1139 C.ar    1  UNL1        0.1503
     29 C          66.7863   93.8382   14.4351 C.ar    1  UNL1        0.0563
     30 C          67.9393   93.5430   15.3478 C.ar    1  UNL1        0.1036
     31 N          68.9829   92.5458   14.9395 N.ar    1  UNL1       -0.2223
     32 C          68.8733   91.8439   13.6184 C.ar    1  UNL1        0.2001
     33 N          67.7202   92.1392   12.7056 N.ar    1  UNL1       -0.2077
@<TRIPOS>BOND
     1    21    22    1
     2    22    11    1
     3    11    12   ar
     4    12    13   ar
     5    13    17    1
     6    17    18    1
     7    17    19    1
     8    17    20    1
     9    13    14   ar
    10    14    15   ar
    11    15    16   ar
    12    16     1    1
    13     1     2   ar
    14     2     3   ar
    15     3     4   ar
    16     4     5   ar
    17     5     6   ar
    18     6     7   ar
    19     7    23    1
    20    23    24    2
    21    23    25    2
    22    23    26    1
    23    26    28    1
    24    28    29   ar
    25    29    30   ar
    26    30    31   ar
    27    31    32   ar
    28    32    33   ar
    29     7     8   ar
    30     8     9   ar
    31     9    10   ar
    32    16    11   ar
    33    10     1   ar
    34    10     5   ar
    35    33    28   ar
    36    26    27    1
@<TRIPOS>MOLECULE
*****
 33 36 0 0 0
SMALL
GASTEIGER

@<TRIPOS>ATOM
      1 C          59.1620   94.6920   -0.2797 C.ar    1  UNL1        0.0842
      2 N          58.7648   96.0674    0.1678 N.ar    1  UNL1       -0.2437
      3 C          57.7665   96.8556   -0.6271 C.ar    1  UNL1        0.0988
      4 C          57.1653   96.2684   -1.8696 C.ar    1  UNL1        0.0207
      5 C          57.5625   94.8929   -2.3171 C.ar    1  UNL1        0.0043
      6 C          56.9614   94.3056   -3.5596 C.ar    1  UNL1        0.0203
      7 C          57.3586   92.9302   -4.0071 C.ar    1  UNL1        0.1252
      8 C          58.3570   92.1419   -3.2121 C.ar    1  UNL1        0.0202
      9 C          58.9581   92.7292   -1.9696 C.ar    1  UNL1        0.0029
     10 C          58.5609   94.1047   -1.5221 C.ar    1  UNL1        0.0179
     11 C          61.5905   93.8366    0.0678 C.ar    1  UNL1        0.1400
     12 C          62.5889   93.0484    0.8627 C.ar    1  UNL1        0.0408
     13 C          62.1572   92.3272    2.1052 C.ar    1  UNL1        0.0744
     14 C          60.7271   92.3944    2.5527 C.ar    1  UNL1        0.0041
     15 C          59.7287   93.1826    1.7577 C.ar    1  UNL1        0.0045
     16 C          60.1604   93.9037    0.5153 C.ar    1  UNL1        0.0516
     17 C          63.1556   91.5390    2.9001 C.3     1  UNL1        0.4187
     18 F          64.1540   90.7508    3.6950 F       1  UNL1       -0.1659
     19 F          64.2415   91.9623    1.9559 F       1  UNL1       -0.1659
     20 F          62.0697   91.1158    3.8443 F       1  UNL1       -0.1659
     21 C          62.9658   93.8972   -2.1356 C.3     1  UNL1        0.2525
     22 O          62.0222   94.5577   -1.1747 O.3     1  UNL1       -0.4714
     23 S          56.7574   92.3429   -5.2496 S.O2    1  UNL1        0.0747
     24 O          55.8436   93.5266   -5.3669 O.2     1  UNL1       -0.1499
     25 O          57.6713   91.1592   -5.1322 O.2     1  UNL1       -0.1499
     26 N          56.1563   91.7556   -6.4920 N.pl3   1  UNL1       -0.1988
     27 H          56.5333   91.9781   -7.3739 H       1  UNL1        0.1753
     28 C          54.9806   90.8295   -6.3909 C.ar    1  UNL1        0.1503
     29 C          54.0578   90.6585   -7.5610 C.ar    1  UNL1        0.0563
     30 C          52.8822   89.7323   -7.4599 C.ar    1  UNL1        0.1036
     31 N          52.6294   88.9771   -6.1887 N.ar    1  UNL1       -0.2223
     32 C          53.5523   89.1481   -5.0186 C.ar    1  UNL1        0.2001
     33 N          54.7280   90.0743   -5.1198 N.ar    1  UNL1       -0.2077
@<TRIPOS>BOND
     1    21    22    1
     2    22    11    1
     3    11    12   ar
     4    12    13   ar
     5    13    17    1
     6    17    18    1
     7    17    19    1
     8    17    20    1
     9    13    14   ar
    10    14    15   ar
    11    15    16   ar
    12    16     1    1
    13     1     2   ar
    14     2     3   ar
    15     3     4   ar
    16     4     5   ar
    17     5     6   ar
    18     6     7   ar
    19     7    23    1
    20    23    24    2
    21    23    25    2
    22    23    26    1
    23    26    28    1
    24    28    29   ar
    25    29    30   ar
    26    30    31   ar
    27    31    32   ar
    28    32    33   ar
    29     7     8   ar
    30     8     9   ar
    31     9    10   ar
    32    16    11   ar
    33    10     1   ar
    34    10     5   ar
    35    33    28   ar
    36    26    27    1
@<TRIPOS>MOLECULE
*****
 33 36 0 0 0
SMALL
GASTEIGER

@<TRIPOS>ATOM
      1 C          60.7160   88.0417   10.4305 C.ar    1  UNL1        0.0842
      2 N          59.4349   87.9081   11.1992 N.ar    1  UNL1       -0.2437
      3 C          59.1333   88.8531   12.3243 C.ar    1  UNL1        0.0988
      4 C          60.1128   89.9317   12.6807 C.ar    1  UNL1        0.0207
      5 C          61.3939   90.0653   11.9120 C.ar    1  UNL1        0.0043
      6 C          62.3735   91.1440   12.2685 C.ar    1  UNL1        0.0203
      7 C          63.6546   91.2776   11.4998 C.ar    1  UNL1        0.1252
      8 C          63.9562   90.3325   10.3747 C.ar    1  UNL1        0.0202
      9 C          62.9767   89.2539   10.0182 C.ar    1  UNL1        0.0029
     10 C          61.6955   89.1203   10.7870 C.ar    1  UNL1        0.0179
     11 C          60.1627   87.1007    8.0728 C.ar    1  UNL1        0.1400
     12 C          60.4643   86.1557    6.9477 C.ar    1  UNL1        0.0408
     13 C          61.6209   85.2065    7.0550 C.ar    1  UNL1        0.0744
     14 C          62.4758   85.2024    8.2876 C.ar    1  UNL1        0.0041
     15 C          62.1742   86.1475    9.4127 C.ar    1  UNL1        0.0045
     16 C          61.0176   87.0966    9.3053 C.ar    1  UNL1        0.0516
     17 C          61.9224   84.2615    5.9299 C.3     1  UNL1        0.4187
     18 F          62.2240   83.3165    4.8048 F       1  UNL1       -0.1659
     19 F          60.4822   83.8439    5.8946 F       1  UNL1       -0.1659
     20 F          63.3627   84.6790    5.9653 F       1  UNL1       -0.1659
     21 C          59.0841   89.2251    7.0366 C.3     1  UNL1        0.2525
     22 O          59.0061   88.0499    7.9655 O.3     1  UNL1       -0.4714
     23 S          64.6341   92.3562   11.8563 S.O2    1  UNL1        0.0747
     24 O          64.5052   91.9942   13.3062 O.2     1  UNL1       -0.1499
     25 O          64.7630   92.7183   10.4064 O.2     1  UNL1       -0.1499
     26 N          65.6136   93.4349   12.2127 N.pl3   1  UNL1       -0.1988
     27 H          65.8170   93.6225   13.1575 H       1  UNL1        0.1753
     28 C          66.2833   94.2277   11.1296 C.ar    1  UNL1        0.1503
     29 C          65.8890   95.6553   10.8921 C.ar    1  UNL1        0.0563
     30 C          66.5586   96.4481    9.8091 C.ar    1  UNL1        0.1036
     31 N          67.6225   95.8133    8.9634 N.ar    1  UNL1       -0.2223
     32 C          68.0168   94.3856    9.2008 C.ar    1  UNL1        0.2001
     33 N          67.3471   93.5928   10.2839 N.ar    1  UNL1       -0.2077
@<TRIPOS>BOND
     1    21    22    1
     2    22    11    1
     3    11    12   ar
     4    12    13   ar
     5    13    17    1
     6    17    18    1
     7    17    19    1
     8    17    20    1
     9    13    14   ar
    10    14    15   ar
    11    15    16   ar
    12    16     1    1
    13     1     2   ar
    14     2     3   ar
    15     3     4   ar
    16     4     5   ar
    17     5     6   ar
    18     6     7   ar
    19     7    23    1
    20    23    24    2
    21    23    25    2
    22    23    26    1
    23    26    28    1
    24    28    29   ar
    25    29    30   ar
    26    30    31   ar
    27    31    32   ar
    28    32    33   ar
    29     7     8   ar
    30     8     9   ar
    31     9    10   ar
    32    16    11   ar
    33    10     1   ar
    34    10     5   ar
    35    33    28   ar
    36    26    27    1
