@<TRIPOS>MOLECULE
*****
 44 47 0 0 0
SMALL
GASTEIGER

@<TRIPOS>ATOM
      1 N          64.2622   90.9732   12.8920 N.pl3   1  UNL1       -0.3043
      2 C          64.3584   89.4764   12.9072 C.3     1  UNL1        0.1123
      3 C          63.4099   88.6554   12.0849 C.3     1  UNL1        0.1149
      4 N          62.3650   89.3313   11.2473 N.am    1  UNL1       -0.2747
      5 C          61.4165   88.5104   10.4249 C.2     1  UNL1        0.2442
      6 O          60.3717   89.1863    9.5873 O.2     1  UNL1       -0.2731
      7 C          62.2689   90.8282   11.2320 C.3     1  UNL1        0.1149
      8 C          63.2175   91.6491   12.0544 C.3     1  UNL1        0.1123
      9 C          65.9935   92.9019   13.0738 C.ar    1  UNL1        0.0111
     10 C          66.9421   93.7227   13.8962 C.ar    1  UNL1        0.0282
     11 C          67.1080   93.4359   15.3591 C.ar    1  UNL1        0.1400
     12 F          68.0567   94.2568   16.1815 F       1  UNL1       -0.2042
     13 C          66.3254   92.3281   15.9996 C.ar    1  UNL1        0.0309
     14 C          65.3768   91.5073   15.1773 C.ar    1  UNL1        0.0166
     15 C          65.2109   91.7941   13.7143 C.ar    1  UNL1        0.0456
     16 C          65.8276   93.1887   11.6108 C.3     1  UNL1        0.0953
     17 N          65.0040   94.3604   11.1650 N.am    1  UNL1       -0.3010
     18 C          65.6405   95.4698   10.3813 C.2     1  UNL1        0.2390
     19 O          64.8169   96.6415    9.9355 O.2     1  UNL1       -0.2736
     20 H          64.0457   94.4014   11.3868 H       1  UNL1        0.1497
     21 C          67.1006   95.4075   10.0435 C.3     1  UNL1        0.1585
     22 N          67.5453   95.5167    8.6151 N.3     1  UNL1       -0.2626
     23 C          67.5725   96.8551    7.9384 C.3     1  UNL1        0.0900
     24 C          67.9627   94.2877    7.8634 C.3     1  UNL1        0.0900
     25 C          66.4852   92.3039   10.5937 C.3     1  UNL1        0.0242
     26 C          68.8288   92.1279    9.4861 C.3     1  UNL1        0.0001
     27 C          67.9514   92.0041   10.6964 C.3     1  UNL1        0.0020
     28 C          68.5402   91.5806   12.0094 C.3     1  UNL1        0.0001
     29 C          61.5127   87.0136   10.4402 C.3     1  UNL1        0.1564
     30 N          61.6614   86.2584    9.1528 N.am    1  UNL1       -0.2727
     31 C          62.9180   85.6115    8.6501 C.3     1  UNL1        0.0943
     32 C          62.6129   84.9708    7.3286 C.3     1  UNL1        0.0311
     33 C          61.1677   85.2217    7.0145 C.3     1  UNL1        0.0870
     34 C          60.5797   86.0175    8.1419 C.2     1  UNL1        0.2260
     35 O          59.1593   86.4894    8.2410 O.2     1  UNL1       -0.2749
     36 C          61.4601   86.2719   11.7429 C.3     1  UNL1        0.0564
     37 C          62.3220   85.0623   11.9526 C.ar    1  UNL1       -0.0094
     38 C          62.1281   83.8457   11.0969 C.ar    1  UNL1       -0.0025
     39 C          62.9900   82.6361   11.3066 C.ar    1  UNL1        0.0111
     40 C          64.0458   82.6431   12.3720 C.ar    1  UNL1        0.0585
     41 CL         64.9077   81.4335   12.5817 Cl      1  UNL1       -0.0822
     42 C          64.2398   83.8597   13.2277 C.ar    1  UNL1        0.0225
     43 C          63.3779   85.0693   13.0181 C.ar    1  UNL1        0.0546
     44 CL         63.5719   86.2859   13.8737 Cl      1  UNL1       -0.0825
@<TRIPOS>BOND
     1    26    27    1
     2    27    28    1
     3    27    25    1
     4    16    25    1
     5    16    17    1
     6    17    18   am
     7    18    19    2
     8    18    21    1
     9    21    22    1
    10    22    23    1
    11    22    24    1
    12    16     9    1
    13     9    10   ar
    14    10    11   ar
    15    11    12    1
    16    11    13   ar
    17    13    14   ar
    18    14    15   ar
    19    15     1    1
    20     1     2    1
    21     2     3    1
    22     3     4    1
    23     4     5   am
    24     5     6    2
    25     5    29    1
    26    29    36    1
    27    36    37    1
    28    37    38   ar
    29    38    39   ar
    30    39    40   ar
    31    40    41    1
    32    40    42   ar
    33    42    43   ar
    34    43    44    1
    35    29    30    1
    36    30    31    1
    37    31    32    1
    38    32    33    1
    39    33    34    1
    40    34    35    2
    41     4     7    1
    42     7     8    1
    43    15     9   ar
    44     8     1    1
    45    43    37   ar
    46    34    30   am
    47    17    20    1
@<TRIPOS>MOLECULE
*****
 44 47 0 0 0
SMALL
GASTEIGER

@<TRIPOS>ATOM
      1 N          61.9916   89.3792   11.0733 N.pl3   1  UNL1       -0.3043
      2 C          63.1833   90.1824   10.6435 C.3     1  UNL1        0.1123
      3 C          63.9802   90.9448   11.6602 C.3     1  UNL1        0.1149
      4 N          63.5853   90.9041   13.1067 N.am    1  UNL1       -0.2747
      5 C          64.3822   91.6665   14.1234 C.2     1  UNL1        0.2442
      6 O          63.9874   91.6258   15.5699 O.2     1  UNL1       -0.2731
      7 C          62.3936   90.1010   13.5366 C.3     1  UNL1        0.1149
      8 C          61.5967   89.3385   12.5198 C.3     1  UNL1        0.1123
      9 C          61.2963   87.1217    9.9916 C.ar    1  UNL1        0.0111
     10 C          60.4994   86.3593    8.9749 C.ar    1  UNL1        0.0282
     11 C          59.6009   87.0921    8.0231 C.ar    1  UNL1        0.1400
     12 F          58.8040   86.3296    7.0064 F       1  UNL1       -0.2042
     13 C          59.4993   88.5872    8.0881 C.ar    1  UNL1        0.0309
     14 C          60.2962   89.3495    9.1048 C.ar    1  UNL1        0.0166
     15 C          61.1947   88.6168   10.0566 C.ar    1  UNL1        0.0456
     16 C          62.1948   86.3889   10.9433 C.3     1  UNL1        0.0953
     17 N          62.9376   87.1440   12.0054 N.am    1  UNL1       -0.3010
     18 C          63.3899   86.4387   13.2497 C.2     1  UNL1        0.2390
     19 O          64.1327   87.1938   14.3118 O.2     1  UNL1       -0.2736
     20 H          63.1282   88.1024   11.8859 H       1  UNL1        0.1497
     21 C          63.0994   84.9785   13.4317 C.3     1  UNL1        0.1585
     22 N          63.2460   84.3476   14.7847 N.3     1  UNL1       -0.2626
     23 C          62.3431   84.7636   15.9080 C.3     1  UNL1        0.0900
     24 C          64.2954   83.3008   15.0145 C.3     1  UNL1        0.0900
     25 C          62.3505   84.9012   10.8330 C.3     1  UNL1        0.0242
     26 C          63.4094   84.8185    8.4619 C.3     1  UNL1        0.0001
     27 C          63.3485   84.3205    9.8754 C.3     1  UNL1        0.0020
     28 C          64.2857   83.2417   10.3316 C.3     1  UNL1        0.0001
     29 C          65.5739   92.4697   13.6936 C.3     1  UNL1        0.1564
     30 N          66.8644   92.3606   14.4503 N.am    1  UNL1       -0.2727
     31 C          68.1933   91.9689   13.8754 C.3     1  UNL1        0.0943
     32 C          69.2028   91.9903   14.9846 C.3     1  UNL1        0.0311
     33 C          68.4977   92.3952   16.2452 C.3     1  UNL1        0.0870
     34 C          67.0526   92.6241   15.9150 C.2     1  UNL1        0.2260
     35 O          65.9833   93.0428   16.8800 O.2     1  UNL1       -0.2749
     36 C          65.4752   93.3819   12.5070 C.3     1  UNL1        0.0564
     37 C          66.4047   93.2023   11.3435 C.ar    1  UNL1       -0.0094
     38 C          67.1765   91.9253   11.1903 C.ar    1  UNL1       -0.0025
     39 C          68.1060   91.7457   10.0268 C.ar    1  UNL1        0.0111
     40 C          68.2638   92.8431    9.0165 C.ar    1  UNL1        0.0585
     41 CL         69.1933   92.6635    7.8530 Cl      1  UNL1       -0.0822
     42 C          67.4920   94.1202    9.1697 C.ar    1  UNL1        0.0225
     43 C          66.5625   94.2998   10.3332 C.ar    1  UNL1        0.0546
     44 CL         65.7907   95.5768   10.4864 Cl      1  UNL1       -0.0825
@<TRIPOS>BOND
     1    26    27    1
     2    27    28    1
     3    27    25    1
     4    16    25    1
     5    16    17    1
     6    17    18   am
     7    18    19    2
     8    18    21    1
     9    21    22    1
    10    22    23    1
    11    22    24    1
    12    16     9    1
    13     9    10   ar
    14    10    11   ar
    15    11    12    1
    16    11    13   ar
    17    13    14   ar
    18    14    15   ar
    19    15     1    1
    20     1     2    1
    21     2     3    1
    22     3     4    1
    23     4     5   am
    24     5     6    2
    25     5    29    1
    26    29    36    1
    27    36    37    1
    28    37    38   ar
    29    38    39   ar
    30    39    40   ar
    31    40    41    1
    32    40    42   ar
    33    42    43   ar
    34    43    44    1
    35    29    30    1
    36    30    31    1
    37    31    32    1
    38    32    33    1
    39    33    34    1
    40    34    35    2
    41     4     7    1
    42     7     8    1
    43    15     9   ar
    44     8     1    1
    45    43    37   ar
    46    34    30   am
    47    17    20    1
@<TRIPOS>MOLECULE
*****
 44 47 0 0 0
SMALL
GASTEIGER

@<TRIPOS>ATOM
      1 N          64.3073   91.1028   13.1910 N.pl3   1  UNL1       -0.3043
      2 C          64.5444   90.5730   11.8078 C.3     1  UNL1        0.1123
      3 C          63.4942   89.7413   11.1330 C.3     1  UNL1        0.1149
      4 N          62.2069   89.4394   11.8414 N.am    1  UNL1       -0.2747
      5 C          61.1567   88.6078   11.1666 C.2     1  UNL1        0.2442
      6 O          59.8694   88.3059   11.8749 O.2     1  UNL1       -0.2731
      7 C          61.9698   89.9693   13.2245 C.3     1  UNL1        0.1149
      8 C          63.0201   90.8010   13.8993 C.3     1  UNL1        0.1123
      9 C          66.1251   92.9558   13.0797 C.ar    1  UNL1        0.0111
     10 C          67.1753   93.7874   13.7545 C.ar    1  UNL1        0.0282
     11 C          67.4580   93.5978   15.2154 C.ar    1  UNL1        0.1400
     12 F          68.5083   94.4295   15.8901 F       1  UNL1       -0.2042
     13 C          66.6906   92.5765   16.0014 C.ar    1  UNL1        0.0309
     14 C          65.6404   91.7449   15.3266 C.ar    1  UNL1        0.0166
     15 C          65.3576   91.9345   13.8658 C.ar    1  UNL1        0.0456
     16 C          65.8423   93.1455   11.6189 C.3     1  UNL1        0.0953
     17 N          64.8814   94.2072   11.1726 N.am    1  UNL1       -0.3010
     18 C          65.3857   95.4159   10.4413 C.2     1  UNL1        0.2390
     19 O          64.4247   96.4777    9.9951 O.2     1  UNL1       -0.2736
     20 H          63.9196   94.1108   11.3596 H       1  UNL1        0.1497
     21 C          66.8510   95.5628   10.1564 C.3     1  UNL1        0.1585
     22 N          67.3212   95.8091    8.7534 N.3     1  UNL1       -0.2626
     23 C          66.7496   95.0105    7.6197 C.3     1  UNL1        0.0900
     24 C          68.3631   96.8541    8.4842 C.3     1  UNL1        0.0900
     25 C          66.5205   92.2734   10.6043 C.3     1  UNL1        0.0242
     26 C          68.8429   92.5508    9.4730 C.3     1  UNL1        0.0001
     27 C          68.0105   92.1031   10.6377 C.3     1  UNL1        0.0020
     28 C          68.6680   91.4852   11.8360 C.3     1  UNL1        0.0001
     29 C          61.3938   88.0779    9.7834 C.3     1  UNL1        0.1564
     30 N          60.4366   88.4122    8.6780 N.am    1  UNL1       -0.2727
     31 C          60.0231   89.7911    8.2565 C.3     1  UNL1        0.0943
     32 C          59.0558   89.6573    7.1179 C.3     1  UNL1        0.0311
     33 C          58.8715   88.1956    6.8357 C.3     1  UNL1        0.0870
     34 C          59.7248   87.4261    7.7999 C.2     1  UNL1        0.2260
     35 O          59.8452   85.9328    7.8731 O.2     1  UNL1       -0.2749
     36 C          62.5880   87.2139    9.5058 C.3     1  UNL1        0.0564
     37 C          62.7206   85.8793   10.1774 C.ar    1  UNL1       -0.0094
     38 C          62.5244   85.7629   11.6599 C.ar    1  UNL1       -0.0025
     39 C          62.6569   84.4283   12.3316 C.ar    1  UNL1        0.0111
     40 C          62.9857   83.2099   11.5207 C.ar    1  UNL1        0.0585
     41 CL         63.1183   81.8753   12.1924 Cl      1  UNL1       -0.0822
     42 C          63.1819   83.3262   10.0381 C.ar    1  UNL1        0.0225
     43 C          63.0494   84.6609    9.3665 C.ar    1  UNL1        0.0546
     44 CL         63.2456   84.7772    7.8839 Cl      1  UNL1       -0.0825
@<TRIPOS>BOND
     1    26    27    1
     2    27    28    1
     3    27    25    1
     4    16    25    1
     5    16    17    1
     6    17    18   am
     7    18    19    2
     8    18    21    1
     9    21    22    1
    10    22    23    1
    11    22    24    1
    12    16     9    1
    13     9    10   ar
    14    10    11   ar
    15    11    12    1
    16    11    13   ar
    17    13    14   ar
    18    14    15   ar
    19    15     1    1
    20     1     2    1
    21     2     3    1
    22     3     4    1
    23     4     5   am
    24     5     6    2
    25     5    29    1
    26    29    36    1
    27    36    37    1
    28    37    38   ar
    29    38    39   ar
    30    39    40   ar
    31    40    41    1
    32    40    42   ar
    33    42    43   ar
    34    43    44    1
    35    29    30    1
    36    30    31    1
    37    31    32    1
    38    32    33    1
    39    33    34    1
    40    34    35    2
    41     4     7    1
    42     7     8    1
    43    15     9   ar
    44     8     1    1
    45    43    37   ar
    46    34    30   am
    47    17    20    1
@<TRIPOS>MOLECULE
*****
 44 47 0 0 0
SMALL
GASTEIGER

@<TRIPOS>ATOM
      1 N          61.9980   88.9111   10.9106 N.pl3   1  UNL1       -0.3043
      2 C          63.1462   89.7779   10.4860 C.3     1  UNL1        0.1123
      3 C          63.8504   90.6367   11.4942 C.3     1  UNL1        0.1149
      4 N          63.4065   90.6286   12.9271 N.am    1  UNL1       -0.2747
      5 C          64.1108   91.4874   13.9352 C.2     1  UNL1        0.2442
      6 O          63.6669   91.4793   15.3680 O.2     1  UNL1       -0.2731
      7 C          62.2583   89.7618   13.3516 C.3     1  UNL1        0.1149
      8 C          61.5540   88.9030   12.3433 C.3     1  UNL1        0.1123
      9 C          61.4736   86.5634    9.9290 C.ar    1  UNL1        0.0111
     10 C          60.7693   85.7047    8.9208 C.ar    1  UNL1        0.0282
     11 C          59.8852   86.3349    7.8858 C.ar    1  UNL1        0.1400
     12 F          59.1809   85.4761    6.8775 F       1  UNL1       -0.2042
     13 C          59.7053   87.8238    7.8591 C.ar    1  UNL1        0.0309
     14 C          60.4095   88.6825    8.8674 C.ar    1  UNL1        0.0166
     15 C          61.2937   88.0523    9.9023 C.ar    1  UNL1        0.0456
     16 C          62.3577   85.9332   10.9640 C.3     1  UNL1        0.0953
     17 N          63.6198   85.2370   10.5488 N.am    1  UNL1       -0.3010
     18 C          63.7261   83.7452   10.6639 C.2     1  UNL1        0.2390
     19 O          64.9883   83.0490   10.2487 O.2     1  UNL1       -0.2736
     20 H          64.3784   85.7592   10.2009 H       1  UNL1        0.1497
     21 C          62.5703   82.9496   11.1940 C.3     1  UNL1        0.1585
     22 N          62.7335   81.4850   11.4740 N.3     1  UNL1       -0.2626
     23 C          62.9914   80.5301   10.3464 C.3     1  UNL1        0.0900
     24 C          62.6388   80.9754   12.8815 C.3     1  UNL1        0.0900
     25 C          61.9798   85.9992   12.4140 C.3     1  UNL1        0.0242
     26 C          64.1002   86.6194   13.7813 C.3     1  UNL1        0.0001
     27 C          62.9908   85.6595   13.4688 C.3     1  UNL1        0.0020
     28 C          62.8923   84.3598   14.2112 C.3     1  UNL1        0.0001
     29 C          65.2590   92.3542   13.5107 C.3     1  UNL1        0.1564
     30 N          66.4601   92.4957   14.3980 N.am    1  UNL1       -0.2727
     31 C          67.1331   91.3886   15.1540 C.3     1  UNL1        0.0943
     32 C          68.2880   91.9777   15.9083 C.3     1  UNL1        0.0311
     33 C          68.3288   93.4490   15.6184 C.3     1  UNL1        0.0870
     34 C          67.1991   93.7690   14.6850 C.2     1  UNL1        0.2260
     35 O          66.8668   95.1244   14.1352 O.2     1  UNL1       -0.2749
     36 C          65.2061   93.0796   12.1988 C.3     1  UNL1        0.0564
     37 C          66.3186   92.9161   11.2060 C.ar    1  UNL1       -0.0094
     38 C          67.2900   91.7821   11.3481 C.ar    1  UNL1       -0.0025
     39 C          68.4024   91.6186   10.3553 C.ar    1  UNL1        0.0111
     40 C          68.5435   92.5892    9.2204 C.ar    1  UNL1        0.0585
     41 CL         69.6560   92.4258    8.2276 Cl      1  UNL1       -0.0822
     42 C          67.5721   93.7234    9.0783 C.ar    1  UNL1        0.0225
     43 C          66.4596   93.8869   10.0711 C.ar    1  UNL1        0.0546
     44 CL         65.4883   95.0209    9.9291 Cl      1  UNL1       -0.0825
@<TRIPOS>BOND
     1    26    27    1
     2    27    28    1
     3    27    25    1
     4    16    25    1
     5    16    17    1
     6    17    18   am
     7    18    19    2
     8    18    21    1
     9    21    22    1
    10    22    23    1
    11    22    24    1
    12    16     9    1
    13     9    10   ar
    14    10    11   ar
    15    11    12    1
    16    11    13   ar
    17    13    14   ar
    18    14    15   ar
    19    15     1    1
    20     1     2    1
    21     2     3    1
    22     3     4    1
    23     4     5   am
    24     5     6    2
    25     5    29    1
    26    29    36    1
    27    36    37    1
    28    37    38   ar
    29    38    39   ar
    30    39    40   ar
    31    40    41    1
    32    40    42   ar
    33    42    43   ar
    34    43    44    1
    35    29    30    1
    36    30    31    1
    37    31    32    1
    38    32    33    1
    39    33    34    1
    40    34    35    2
    41     4     7    1
    42     7     8    1
    43    15     9   ar
    44     8     1    1
    45    43    37   ar
    46    34    30   am
    47    17    20    1
@<TRIPOS>MOLECULE
*****
 44 47 0 0 0
SMALL
GASTEIGER

@<TRIPOS>ATOM
      1 N          64.0360   91.8001   11.3299 N.pl3   1  UNL1       -0.3043
      2 C          64.1193   90.8602   10.1638 C.3     1  UNL1        0.1123
      3 C          63.3066   89.5995   10.1572 C.3     1  UNL1        0.1149
      4 N          62.4106   89.2786   11.3167 N.am    1  UNL1       -0.2747
      5 C          61.5980   88.0179   11.3100 C.2     1  UNL1        0.2442
      6 O          60.7021   87.6970   12.4695 O.2     1  UNL1       -0.2731
      7 C          62.3274   90.2185   12.4827 C.3     1  UNL1        0.1149
      8 C          63.1401   91.4793   12.4893 C.3     1  UNL1        0.1123
      9 C          65.7248   93.3824   12.5108 C.ar    1  UNL1        0.0111
     10 C          66.5374   94.6431   12.5173 C.ar    1  UNL1        0.0282
     11 C          66.4740   95.5824   11.3495 C.ar    1  UNL1        0.1400
     12 F          67.2868   96.8432   11.3561 F       1  UNL1       -0.2042
     13 C          65.5980   95.2609   10.1752 C.ar    1  UNL1        0.0309
     14 C          64.7853   94.0002   10.1686 C.ar    1  UNL1        0.0166
     15 C          64.8487   93.0609   11.3365 C.ar    1  UNL1        0.0456
     16 C          65.7882   92.4432   13.6786 C.3     1  UNL1        0.0953
     17 N          64.7718   92.5428   14.7772 N.am    1  UNL1       -0.3010
     18 C          64.2894   91.3015   15.4675 C.2     1  UNL1        0.2390
     19 O          63.2730   91.4011   16.5662 O.2     1  UNL1       -0.2736
     20 H          64.4213   93.4229   15.0453 H       1  UNL1        0.1497
     21 C          64.8234   89.9606   15.0592 C.3     1  UNL1        0.1585
     22 N          64.0366   88.7182   15.3549 N.3     1  UNL1       -0.2626
     23 C          63.1059   88.6819   16.5307 C.3     1  UNL1        0.0900
     24 C          64.1804   87.5121   14.4748 C.3     1  UNL1        0.0900
     25 C          66.8679   91.4043   13.7478 C.3     1  UNL1        0.0242
     26 C          68.4382   92.2003   15.6585 C.3     1  UNL1        0.0001
     27 C          68.2373   91.7770   14.2335 C.3     1  UNL1        0.0020
     28 C          69.4058   91.7264   13.2943 C.3     1  UNL1        0.0001
     29 C          61.6813   87.0780   10.1440 C.3     1  UNL1        0.1564
     30 N          60.6585   87.1488    9.0491 N.am    1  UNL1       -0.2727
     31 C          60.2322   86.0137    8.1659 C.3     1  UNL1        0.0943
     32 C          59.1927   86.5305    7.2161 C.3     1  UNL1        0.0311
     33 C          58.9764   87.9850    7.5122 C.3     1  UNL1        0.0870
     34 C          59.8823   88.3671    8.6451 C.2     1  UNL1        0.2260
     35 O          59.9927   89.7285    9.2650 O.2     1  UNL1       -0.2749
     36 C          62.7873   86.0673   10.0728 C.3     1  UNL1        0.0564
     37 C          62.8527   84.9550   11.0771 C.ar    1  UNL1       -0.0094
     38 C          62.3092   85.1603   12.4600 C.ar    1  UNL1       -0.0025
     39 C          62.3746   84.0480   13.4643 C.ar    1  UNL1        0.0111
     40 C          62.9834   82.7305   13.0857 C.ar    1  UNL1        0.0585
     41 CL         63.0488   81.6182   14.0900 Cl      1  UNL1       -0.0822
     42 C          63.5269   82.5252   11.7027 C.ar    1  UNL1        0.0225
     43 C          63.4616   83.6374   10.6984 C.ar    1  UNL1        0.0546
     44 CL         64.0050   83.4322    9.3155 Cl      1  UNL1       -0.0825
@<TRIPOS>BOND
     1    26    27    1
     2    27    28    1
     3    27    25    1
     4    16    25    1
     5    16    17    1
     6    17    18   am
     7    18    19    2
     8    18    21    1
     9    21    22    1
    10    22    23    1
    11    22    24    1
    12    16     9    1
    13     9    10   ar
    14    10    11   ar
    15    11    12    1
    16    11    13   ar
    17    13    14   ar
    18    14    15   ar
    19    15     1    1
    20     1     2    1
    21     2     3    1
    22     3     4    1
    23     4     5   am
    24     5     6    2
    25     5    29    1
    26    29    36    1
    27    36    37    1
    28    37    38   ar
    29    38    39   ar
    30    39    40   ar
    31    40    41    1
    32    40    42   ar
    33    42    43   ar
    34    43    44    1
    35    29    30    1
    36    30    31    1
    37    31    32    1
    38    32    33    1
    39    33    34    1
    40    34    35    2
    41     4     7    1
    42     7     8    1
    43    15     9   ar
    44     8     1    1
    45    43    37   ar
    46    34    30   am
    47    17    20    1
