@<TRIPOS>MOLECULE
*****
 26 29 0 0 0
SMALL
GASTEIGER

@<TRIPOS>ATOM
      1 O          64.1199   91.8090   16.7671 O.2     1  UNL1       -0.2699
      2 C          64.4083   90.8542   15.6467 C.2     1  UNL1        0.2495
      3 N          63.9238   89.4367   15.7259 N.am    1  UNL1       -0.2684
      4 C          63.1511   88.9741   16.9253 C.3     1  UNL1        0.1204
      5 C          62.6667   87.5567   17.0044 C.3     1  UNL1        0.1486
      6 N          62.9551   86.6019   15.8840 N.ar    1  UNL1       -0.2515
      7 N          62.6086   85.1564   15.6830 N.ar    1  UNL1       -0.1680
      8 C          63.1672   84.7256   14.3592 C.ar    1  UNL1        0.1197
      9 C          63.8589   85.9050   13.7422 C.ar    1  UNL1        0.0384
     10 C          63.7278   87.0646   14.6846 C.ar    1  UNL1        0.0773
     11 C          64.2122   88.4820   14.6055 C.3     1  UNL1        0.1393
     12 C          65.1810   91.3168   14.4472 C.ar    1  UNL1        0.0567
     13 C          66.6693   91.4836   14.5325 C.ar    1  UNL1        0.0342
     14 C          67.4420   91.9463   13.3329 C.ar    1  UNL1        0.1411
     15 F          68.9303   92.1131   13.4181 F       1  UNL1       -0.2041
     16 C          66.7265   92.2421   12.0482 C.ar    1  UNL1        0.0410
     17 C          65.2383   92.0753   11.9630 C.ar    1  UNL1        0.0601
     18 CL         64.5228   92.3711   10.6783 Cl      1  UNL1       -0.0822
     19 C          64.4655   91.6126   13.1624 C.ar    1  UNL1        0.0161
     20 C          63.0540   83.3560   13.7580 C.ar    1  UNL1        0.1008
     21 C          63.1867   83.1747   12.2749 C.ar    1  UNL1        0.0230
     22 C          63.0735   81.8051   11.6737 C.ar    1  UNL1        0.0328
     23 C          62.8277   80.6169   12.5555 C.ar    1  UNL1        0.1592
     24 F          62.7145   79.2473   11.9543 F       1  UNL1       -0.2025
     25 C          62.6951   80.7983   14.0386 C.ar    1  UNL1        0.1284
     26 N          62.8082   82.1678   14.6398 N.ar    1  UNL1       -0.2399
@<TRIPOS>BOND
     1     1     2    2
     2     2    12    1
     3    12    13   ar
     4    13    14   ar
     5    14    15    1
     6    14    16   ar
     7    16    17   ar
     8    17    18    1
     9    17    19   ar
    10     2     3   am
    11     3     4    1
    12     4     5    1
    13     5     6    1
    14     6     7   ar
    15     7     8   ar
    16     8    20    1
    17    20    21   ar
    18    21    22   ar
    19    22    23   ar
    20    23    24    1
    21    23    25   ar
    22    25    26   ar
    23     8     9   ar
    24     9    10   ar
    25    10    11    1
    26    19    12   ar
    27    11     3    1
    28    10     6   ar
    29    26    20   ar
@<TRIPOS>MOLECULE
*****
 26 29 0 0 0
SMALL
GASTEIGER

@<TRIPOS>ATOM
      1 O          64.3375   92.2172   16.5086 O.2     1  UNL1       -0.2699
      2 C          64.6069   91.1814   15.4576 C.2     1  UNL1        0.2495
      3 N          64.1192   89.7756   15.6476 N.am    1  UNL1       -0.2684
      4 C          63.3620   89.4057   16.8885 C.3     1  UNL1        0.1204
      5 C          62.8743   88.0000   17.0784 C.3     1  UNL1        0.1486
      6 N          63.1438   86.9642   16.0274 N.ar    1  UNL1       -0.2515
      7 N          62.7899   85.5093   15.9382 N.ar    1  UNL1       -0.1680
      8 C          63.3284   84.9800   14.6421 C.ar    1  UNL1        0.1197
      9 C          64.0150   86.1078   13.9303 C.ar    1  UNL1        0.0384
     10 C          63.9009   87.3341   14.7866 C.ar    1  UNL1        0.0773
     11 C          64.3886   88.7398   14.5966 C.3     1  UNL1        0.1393
     12 C          65.3641   91.5513   14.2168 C.ar    1  UNL1        0.0567
     13 C          64.6220   91.9694   12.9820 C.ar    1  UNL1        0.0342
     14 C          65.3793   92.3393   11.7411 C.ar    1  UNL1        0.1411
     15 F          64.6372   92.7573   10.5063 F       1  UNL1       -0.2041
     16 C          66.8785   92.2911   11.7349 C.ar    1  UNL1        0.0410
     17 C          67.6205   91.8731   12.9697 C.ar    1  UNL1        0.0601
     18 CL         69.1197   91.8249   12.9636 Cl      1  UNL1       -0.0822
     19 C          66.8633   91.5032   14.2106 C.ar    1  UNL1        0.0161
     20 C          63.2024   83.5703   14.1449 C.ar    1  UNL1        0.1008
     21 C          62.0870   82.6977   14.6391 C.ar    1  UNL1        0.0230
     22 C          61.9609   81.2881   14.1420 C.ar    1  UNL1        0.0328
     23 C          62.9503   80.7512   13.1507 C.ar    1  UNL1        0.1592
     24 F          62.8243   79.3415   12.6535 F       1  UNL1       -0.2025
     25 C          64.0657   81.6239   12.6565 C.ar    1  UNL1        0.1284
     26 N          64.1918   83.0334   13.1536 N.ar    1  UNL1       -0.2399
@<TRIPOS>BOND
     1     1     2    2
     2     2    12    1
     3    12    13   ar
     4    13    14   ar
     5    14    15    1
     6    14    16   ar
     7    16    17   ar
     8    17    18    1
     9    17    19   ar
    10     2     3   am
    11     3     4    1
    12     4     5    1
    13     5     6    1
    14     6     7   ar
    15     7     8   ar
    16     8    20    1
    17    20    21   ar
    18    21    22   ar
    19    22    23   ar
    20    23    24    1
    21    23    25   ar
    22    25    26   ar
    23     8     9   ar
    24     9    10   ar
    25    10    11    1
    26    19    12   ar
    27    11     3    1
    28    10     6   ar
    29    26    20   ar
@<TRIPOS>MOLECULE
*****
 26 29 0 0 0
SMALL
GASTEIGER

@<TRIPOS>ATOM
      1 O          63.9852   91.6510   16.2908 O.2     1  UNL1       -0.2699
      2 C          64.0644   90.7212   15.1164 C.2     1  UNL1        0.2495
      3 N          63.7600   89.2629   15.2924 N.am    1  UNL1       -0.2684
      4 C          63.3764   88.7345   16.6428 C.3     1  UNL1        0.1204
      5 C          63.0721   87.2763   16.8188 C.3     1  UNL1        0.1486
      6 N          63.1512   86.3466   15.6443 N.ar    1  UNL1       -0.2515
      7 N          62.9090   84.8720   15.5135 N.ar    1  UNL1       -0.1680
      8 C          63.1428   84.4891   14.0821 C.ar    1  UNL1        0.1197
      9 C          63.5296   85.7271   13.3284 C.ar    1  UNL1        0.0384
     10 C          63.5347   86.8750   14.2939 C.ar    1  UNL1        0.0773
     11 C          63.8391   88.3332   14.1180 C.3     1  UNL1        0.1393
     12 C          64.4479   91.2496   13.7660 C.ar    1  UNL1        0.0567
     13 C          65.7152   92.0348   13.6000 C.ar    1  UNL1        0.0342
     14 C          66.0987   92.5632   12.2495 C.ar    1  UNL1        0.1411
     15 F          67.3660   93.3484   12.0836 F       1  UNL1       -0.2041
     16 C          65.2150   92.3065   11.0651 C.ar    1  UNL1        0.0410
     17 C          63.9477   91.5213   11.2310 C.ar    1  UNL1        0.0601
     18 CL         63.0639   91.2645   10.0465 Cl      1  UNL1       -0.0822
     19 C          63.5642   90.9929   12.5814 C.ar    1  UNL1        0.0161
     20 C          63.0128   83.1104   13.5056 C.ar    1  UNL1        0.1008
     21 C          62.4786   81.9917   14.3501 C.ar    1  UNL1        0.0230
     22 C          62.3485   80.6131   13.7737 C.ar    1  UNL1        0.0328
     23 C          62.7527   80.3531   12.3528 C.ar    1  UNL1        0.1592
     24 F          62.6227   78.9743   11.7763 F       1  UNL1       -0.2025
     25 C          63.2869   81.4718   11.5083 C.ar    1  UNL1        0.1284
     26 N          63.4170   82.8504   12.0847 N.ar    1  UNL1       -0.2399
@<TRIPOS>BOND
     1     1     2    2
     2     2    12    1
     3    12    13   ar
     4    13    14   ar
     5    14    15    1
     6    14    16   ar
     7    16    17   ar
     8    17    18    1
     9    17    19   ar
    10     2     3   am
    11     3     4    1
    12     4     5    1
    13     5     6    1
    14     6     7   ar
    15     7     8   ar
    16     8    20    1
    17    20    21   ar
    18    21    22   ar
    19    22    23   ar
    20    23    24    1
    21    23    25   ar
    22    25    26   ar
    23     8     9   ar
    24     9    10   ar
    25    10    11    1
    26    19    12   ar
    27    11     3    1
    28    10     6   ar
    29    26    20   ar
@<TRIPOS>MOLECULE
*****
 26 29 0 0 0
SMALL
GASTEIGER

@<TRIPOS>ATOM
      1 O          63.1407   91.8999   10.6496 O.2     1  UNL1       -0.2699
      2 C          63.4323   90.8305   11.6602 C.2     1  UNL1        0.2495
      3 N          63.0584   89.4063   11.3742 N.am    1  UNL1       -0.2684
      4 C          62.3929   89.0515   10.0776 C.3     1  UNL1        0.1204
      5 C          62.0191   87.6273    9.7916 C.3     1  UNL1        0.1486
      6 N          62.3107   86.5579   10.8022 N.ar    1  UNL1       -0.2515
      7 N          62.0598   85.0789   10.7993 N.ar    1  UNL1       -0.1680
      8 C          62.5703   84.5197   12.0942 C.ar    1  UNL1        0.1197
      9 C          63.1366   85.6530   12.8973 C.ar    1  UNL1        0.0384
     10 C          62.9761   86.9126   12.0988 C.ar    1  UNL1        0.0773
     11 C          63.3500   88.3368   12.3848 C.3     1  UNL1        0.1393
     12 C          64.0978   91.1853   12.9568 C.ar    1  UNL1        0.0567
     13 C          63.5139   90.7100   14.2542 C.ar    1  UNL1        0.0342
     14 C          64.1795   91.0648   15.5509 C.ar    1  UNL1        0.1411
     15 F          63.5956   90.5895   16.8482 F       1  UNL1       -0.2041
     16 C          65.4288   91.8949   15.5501 C.ar    1  UNL1        0.0410
     17 C          66.0126   92.3703   14.2527 C.ar    1  UNL1        0.0601
     18 CL         67.2620   93.2004   14.2519 Cl      1  UNL1       -0.0822
     19 C          65.3472   92.0155   12.9561 C.ar    1  UNL1        0.0161
     20 C          62.5228   83.0800   12.5126 C.ar    1  UNL1        0.1008
     21 C          62.9115   82.0039   11.5426 C.ar    1  UNL1        0.0230
     22 C          62.8641   80.5642   11.9609 C.ar    1  UNL1        0.0328
     23 C          62.4279   80.2007   13.3492 C.ar    1  UNL1        0.1592
     24 F          62.3804   78.7609   13.7676 F       1  UNL1       -0.2025
     25 C          62.0392   81.2767   14.3192 C.ar    1  UNL1        0.1284
     26 N          62.0866   82.7164   13.9009 N.ar    1  UNL1       -0.2399
@<TRIPOS>BOND
     1     1     2    2
     2     2    12    1
     3    12    13   ar
     4    13    14   ar
     5    14    15    1
     6    14    16   ar
     7    16    17   ar
     8    17    18    1
     9    17    19   ar
    10     2     3   am
    11     3     4    1
    12     4     5    1
    13     5     6    1
    14     6     7   ar
    15     7     8   ar
    16     8    20    1
    17    20    21   ar
    18    21    22   ar
    19    22    23   ar
    20    23    24    1
    21    23    25   ar
    22    25    26   ar
    23     8     9   ar
    24     9    10   ar
    25    10    11    1
    26    19    12   ar
    27    11     3    1
    28    10     6   ar
    29    26    20   ar
@<TRIPOS>MOLECULE
*****
 26 29 0 0 0
SMALL
GASTEIGER

@<TRIPOS>ATOM
      1 O          62.9162   91.7286   10.4274 O.2     1  UNL1       -0.2699
      2 C          63.2722   90.6761   11.4351 C.2     1  UNL1        0.2495
      3 N          62.9046   89.2434   11.1850 N.am    1  UNL1       -0.2684
      4 C          62.1811   88.8633    9.9273 C.3     1  UNL1        0.1204
      5 C          61.8136   87.4308    9.6773 C.3     1  UNL1        0.1486
      6 N          62.1695   86.3783   10.6850 N.ar    1  UNL1       -0.2515
      7 N          61.9396   84.8962   10.7123 N.ar    1  UNL1       -0.1680
      8 C          62.5210   84.3604   11.9870 C.ar    1  UNL1        0.1197
      9 C          63.1102   85.5113   12.7475 C.ar    1  UNL1        0.0384
     10 C          62.8930   86.7584   11.9428 C.ar    1  UNL1        0.0773
     11 C          63.2606   88.1910   12.1928 C.3     1  UNL1        0.1393
     12 C          63.9957   91.0562   12.6929 C.ar    1  UNL1        0.0567
     13 C          65.2739   91.8374   12.6160 C.ar    1  UNL1        0.0342
     14 C          65.9974   92.2175   13.8738 C.ar    1  UNL1        0.1411
     15 F          67.2756   92.9987   13.7969 F       1  UNL1       -0.2041
     16 C          65.4427   91.8164   15.2085 C.ar    1  UNL1        0.0410
     17 C          64.1645   91.0352   15.2854 C.ar    1  UNL1        0.0601
     18 CL         63.6098   90.6341   16.6201 Cl      1  UNL1       -0.0822
     19 C          63.4410   90.6551   14.0276 C.ar    1  UNL1        0.0161
     20 C          62.5143   82.9256   12.4245 C.ar    1  UNL1        0.1008
     21 C          62.1332   82.5723   13.8317 C.ar    1  UNL1        0.0230
     22 C          62.1265   81.1376   14.2692 C.ar    1  UNL1        0.0328
     23 C          62.5009   80.0561   13.2996 C.ar    1  UNL1        0.1592
     24 F          62.4942   78.6213   13.7371 F       1  UNL1       -0.2025
     25 C          62.8820   80.4094   11.8925 C.ar    1  UNL1        0.1284
     26 N          62.8887   81.8441   11.4550 N.ar    1  UNL1       -0.2399
@<TRIPOS>BOND
     1     1     2    2
     2     2    12    1
     3    12    13   ar
     4    13    14   ar
     5    14    15    1
     6    14    16   ar
     7    16    17   ar
     8    17    18    1
     9    17    19   ar
    10     2     3   am
    11     3     4    1
    12     4     5    1
    13     5     6    1
    14     6     7   ar
    15     7     8   ar
    16     8    20    1
    17    20    21   ar
    18    21    22   ar
    19    22    23   ar
    20    23    24    1
    21    23    25   ar
    22    25    26   ar
    23     8     9   ar
    24     9    10   ar
    25    10    11    1
    26    19    12   ar
    27    11     3    1
    28    10     6   ar
    29    26    20   ar
@<TRIPOS>MOLECULE
*****
 26 29 0 0 0
SMALL
GASTEIGER

@<TRIPOS>ATOM
      1 O          58.4237   87.1358    7.4446 O.2     1  UNL1       -0.2699
      2 C          59.2647   88.3633    7.6339 C.2     1  UNL1        0.2495
      3 N          60.1426   88.4917    8.8435 N.am    1  UNL1       -0.2684
      4 C          60.1793   87.3926    9.8636 C.3     1  UNL1        0.1204
      5 C          61.0571   87.5211   11.0731 C.3     1  UNL1        0.1486
      6 N          61.8982   88.7486   11.2625 N.ar    1  UNL1       -0.2515
      7 N          62.8534   89.1535   12.3459 N.ar    1  UNL1       -0.1680
      8 C          63.4069   90.5028   11.9954 C.ar    1  UNL1        0.1197
      9 C          62.7939   90.9318   10.6953 C.ar    1  UNL1        0.0384
     10 C          61.8614   89.8477   10.2424 C.ar    1  UNL1        0.0773
     11 C          60.9836   89.7192    9.0329 C.3     1  UNL1        0.1393
     12 C          59.2280   89.4624    6.6138 C.ar    1  UNL1        0.0567
     13 C          60.4944   89.9062    5.9436 C.ar    1  UNL1        0.0342
     14 C          60.4576   91.0054    4.9234 C.ar    1  UNL1        0.1411
     15 F          61.7240   91.4492    4.2532 F       1  UNL1       -0.2041
     16 C          59.1544   91.6606    4.5736 C.ar    1  UNL1        0.0410
     17 C          57.8880   91.2167    5.2438 C.ar    1  UNL1        0.0601
     18 CL         56.5848   91.8719    4.8940 Cl      1  UNL1       -0.0822
     19 C          57.9248   90.1176    6.2639 C.ar    1  UNL1        0.0161
     20 C          64.3993   91.2857   12.8031 C.ar    1  UNL1        0.1008
     21 C          64.6920   90.8899   14.2200 C.ar    1  UNL1        0.0230
     22 C          65.6844   91.6727   15.0276 C.ar    1  UNL1        0.0328
     23 C          66.3840   92.8513   14.4184 C.ar    1  UNL1        0.1592
     24 F          67.3764   93.6342   15.2261 F       1  UNL1       -0.2025
     25 C          66.0913   93.2471   13.0015 C.ar    1  UNL1        0.1284
     26 N          65.0990   92.4643   12.1938 N.ar    1  UNL1       -0.2399
@<TRIPOS>BOND
     1     1     2    2
     2     2    12    1
     3    12    13   ar
     4    13    14   ar
     5    14    15    1
     6    14    16   ar
     7    16    17   ar
     8    17    18    1
     9    17    19   ar
    10     2     3   am
    11     3     4    1
    12     4     5    1
    13     5     6    1
    14     6     7   ar
    15     7     8   ar
    16     8    20    1
    17    20    21   ar
    18    21    22   ar
    19    22    23   ar
    20    23    24    1
    21    23    25   ar
    22    25    26   ar
    23     8     9   ar
    24     9    10   ar
    25    10    11    1
    26    19    12   ar
    27    11     3    1
    28    10     6   ar
    29    26    20   ar
@<TRIPOS>MOLECULE
*****
 26 29 0 0 0
SMALL
GASTEIGER

@<TRIPOS>ATOM
      1 O          58.3627   87.1627    7.3965 O.2     1  UNL1       -0.2699
      2 C          59.2029   88.3902    7.5898 C.2     1  UNL1        0.2495
      3 N          60.0873   88.5114    8.7954 N.am    1  UNL1       -0.2684
      4 C          60.1314   87.4053    9.8075 C.3     1  UNL1        0.1204
      5 C          61.0157   87.5266   11.0130 C.3     1  UNL1        0.1486
      6 N          61.8559   88.7540   11.2063 N.ar    1  UNL1       -0.2515
      7 N          62.8165   89.1528   12.2873 N.ar    1  UNL1       -0.1680
      8 C          63.3661   90.5054   11.9432 C.ar    1  UNL1        0.1197
      9 C          62.7451   90.9426   10.6496 C.ar    1  UNL1        0.0384
     10 C          61.8118   89.8602   10.1942 C.ar    1  UNL1        0.0773
     11 C          60.9275   89.7389    8.9887 C.3     1  UNL1        0.1393
     12 C          59.1588   89.4963    6.5777 C.ar    1  UNL1        0.0567
     13 C          57.8559   90.1659    6.2547 C.ar    1  UNL1        0.0342
     14 C          57.8119   91.2721    5.2426 C.ar    1  UNL1        0.1411
     15 F          56.5090   91.9416    4.9196 F       1  UNL1       -0.2041
     16 C          59.0706   91.7087    4.5535 C.ar    1  UNL1        0.0410
     17 C          60.3734   91.0392    4.8765 C.ar    1  UNL1        0.0601
     18 CL         61.6322   91.4759    4.1874 Cl      1  UNL1       -0.0822
     19 C          60.4176   89.9330    5.8886 C.ar    1  UNL1        0.0161
     20 C          64.3618   91.2841   12.7508 C.ar    1  UNL1        0.1008
     21 C          64.6499   90.8895   14.1690 C.ar    1  UNL1        0.0230
     22 C          65.6455   91.6682   14.9766 C.ar    1  UNL1        0.0328
     23 C          66.3530   92.8415   14.3661 C.ar    1  UNL1        0.1592
     24 F          67.3487   93.6202   15.1737 F       1  UNL1       -0.2025
     25 C          66.0649   93.2360   12.9479 C.ar    1  UNL1        0.1284
     26 N          65.0693   92.4574   12.1402 N.ar    1  UNL1       -0.2399
@<TRIPOS>BOND
     1     1     2    2
     2     2    12    1
     3    12    13   ar
     4    13    14   ar
     5    14    15    1
     6    14    16   ar
     7    16    17   ar
     8    17    18    1
     9    17    19   ar
    10     2     3   am
    11     3     4    1
    12     4     5    1
    13     5     6    1
    14     6     7   ar
    15     7     8   ar
    16     8    20    1
    17    20    21   ar
    18    21    22   ar
    19    22    23   ar
    20    23    24    1
    21    23    25   ar
    22    25    26   ar
    23     8     9   ar
    24     9    10   ar
    25    10    11    1
    26    19    12   ar
    27    11     3    1
    28    10     6   ar
    29    26    20   ar
@<TRIPOS>MOLECULE
*****
 26 29 0 0 0
SMALL
GASTEIGER

@<TRIPOS>ATOM
      1 O          60.2370   86.4203    9.9620 O.2     1  UNL1       -0.2699
      2 C          61.4533   86.5403   10.8317 C.2     1  UNL1        0.2495
      3 N          61.9525   87.8946   11.2402 N.am    1  UNL1       -0.2684
      4 C          61.2354   89.1288   10.7791 C.3     1  UNL1        0.1204
      5 C          61.7346   90.4829   11.1876 C.3     1  UNL1        0.1486
      6 N          62.9509   90.6029   12.0573 N.ar    1  UNL1       -0.2515
      7 N          63.6712   91.7939   12.6167 N.ar    1  UNL1       -0.1680
      8 C          64.8335   91.2957   13.4236 C.ar    1  UNL1        0.1197
      9 C          64.8314   89.7969   13.3628 C.ar    1  UNL1        0.0384
     10 C          63.6679   89.3688   12.5185 C.ar    1  UNL1        0.0773
     11 C          63.1687   88.0146   12.1099 C.3     1  UNL1        0.1393
     12 C          62.1703   85.3062   11.2928 C.ar    1  UNL1        0.0567
     13 C          62.9793   84.5010   10.3196 C.ar    1  UNL1        0.0342
     14 C          63.6963   83.2668   10.7808 C.ar    1  UNL1        0.1411
     15 F          64.5053   82.4616    9.8075 F       1  UNL1       -0.2041
     16 C          63.6044   82.8378   12.2151 C.ar    1  UNL1        0.0410
     17 C          62.7954   83.6430   13.1884 C.ar    1  UNL1        0.0601
     18 CL         62.7034   83.2141   14.6228 Cl      1  UNL1       -0.0822
     19 C          62.0784   84.8772   12.7272 C.ar    1  UNL1        0.0161
     20 C          65.8239   92.1469   14.1616 C.ar    1  UNL1        0.1008
     21 C          66.4910   91.6205   15.3977 C.ar    1  UNL1        0.0230
     22 C          67.4814   92.4716   16.1358 C.ar    1  UNL1        0.0328
     23 C          67.8047   93.8490   15.6377 C.ar    1  UNL1        0.1592
     24 F          68.7952   94.7001   16.3757 F       1  UNL1       -0.2025
     25 C          67.1377   94.3753   14.4015 C.ar    1  UNL1        0.1284
     26 N          66.1473   93.5243   13.6635 N.ar    1  UNL1       -0.2399
@<TRIPOS>BOND
     1     1     2    2
     2     2    12    1
     3    12    13   ar
     4    13    14   ar
     5    14    15    1
     6    14    16   ar
     7    16    17   ar
     8    17    18    1
     9    17    19   ar
    10     2     3   am
    11     3     4    1
    12     4     5    1
    13     5     6    1
    14     6     7   ar
    15     7     8   ar
    16     8    20    1
    17    20    21   ar
    18    21    22   ar
    19    22    23   ar
    20    23    24    1
    21    23    25   ar
    22    25    26   ar
    23     8     9   ar
    24     9    10   ar
    25    10    11    1
    26    19    12   ar
    27    11     3    1
    28    10     6   ar
    29    26    20   ar
@<TRIPOS>MOLECULE
*****
 26 29 0 0 0
SMALL
GASTEIGER

@<TRIPOS>ATOM
      1 O          60.2987   86.4985   10.1509 O.2     1  UNL1       -0.2699
      2 C          61.5042   86.6025   11.0374 C.2     1  UNL1        0.2495
      3 N          62.0443   87.9504   11.4138 N.am    1  UNL1       -0.2684
      4 C          61.3789   89.1942   10.9036 C.3     1  UNL1        0.1204
      5 C          61.9189   90.5420   11.2800 C.3     1  UNL1        0.1486
      6 N          63.1244   90.6460   12.1665 N.ar    1  UNL1       -0.2515
      7 N          63.8773   91.8277   12.7023 N.ar    1  UNL1       -0.1680
      8 C          65.0080   91.3142   13.5436 C.ar    1  UNL1        0.1197
      9 C          64.9539   89.8152   13.5278 C.ar    1  UNL1        0.0384
     10 C          63.7898   89.4023   12.6767 C.ar    1  UNL1        0.0773
     11 C          63.2498   88.0545   12.3003 C.3     1  UNL1        0.1393
     12 C          62.1696   85.3588   11.5476 C.ar    1  UNL1        0.0567
     13 C          62.0493   84.9836   12.9949 C.ar    1  UNL1        0.0342
     14 C          62.7147   83.7398   13.5051 C.ar    1  UNL1        0.1411
     15 F          62.5944   83.3645   14.9524 F       1  UNL1       -0.2041
     16 C          63.5005   82.8713   12.5679 C.ar    1  UNL1        0.0410
     17 C          63.6208   83.2465   11.1206 C.ar    1  UNL1        0.0601
     18 CL         64.4066   82.3780   10.1835 Cl      1  UNL1       -0.0822
     19 C          62.9554   84.4902   10.6104 C.ar    1  UNL1        0.0161
     20 C          66.0158   92.1525   14.2728 C.ar    1  UNL1        0.1008
     21 C          66.3040   93.5501   13.8106 C.ar    1  UNL1        0.0230
     22 C          67.3117   94.3884   14.5397 C.ar    1  UNL1        0.0328
     23 C          68.0314   93.8290   15.7310 C.ar    1  UNL1        0.1592
     24 F          69.0393   94.6672   16.4602 F       1  UNL1       -0.2025
     25 C          67.7433   92.4313   16.1932 C.ar    1  UNL1        0.1284
     26 N          66.7355   91.5931   15.4641 N.ar    1  UNL1       -0.2399
@<TRIPOS>BOND
     1     1     2    2
     2     2    12    1
     3    12    13   ar
     4    13    14   ar
     5    14    15    1
     6    14    16   ar
     7    16    17   ar
     8    17    18    1
     9    17    19   ar
    10     2     3   am
    11     3     4    1
    12     4     5    1
    13     5     6    1
    14     6     7   ar
    15     7     8   ar
    16     8    20    1
    17    20    21   ar
    18    21    22   ar
    19    22    23   ar
    20    23    24    1
    21    23    25   ar
    22    25    26   ar
    23     8     9   ar
    24     9    10   ar
    25    10    11    1
    26    19    12   ar
    27    11     3    1
    28    10     6   ar
    29    26    20   ar
