@<TRIPOS>MOLECULE
*****
 28 30 0 0 0
SMALL
GASTEIGER

@<TRIPOS>ATOM
      1 C          60.1055   88.4865    8.7306 C.ar    1  UNL1       -0.0044
      2 C          59.9228   89.8031    9.4257 C.ar    1  UNL1       -0.0014
      3 C          60.9465   90.2780   10.4139 C.ar    1  UNL1        0.0144
      4 C          62.1529   89.4362   10.7070 C.ar    1  UNL1        0.0516
      5 C          62.3356   88.1196   10.0120 C.ar    1  UNL1        0.0144
      6 C          61.3119   87.6447    9.0238 C.ar    1  UNL1       -0.0014
      7 N          63.1766   89.9111   11.6952 N.am    1  UNL1       -0.2681
      8 C          63.9876   91.1388   11.4036 C.2     1  UNL1        0.3077
      9 O          63.7749   91.8916   10.1237 O.2     1  UNL1       -0.2522
     10 N          65.0113   91.6137   12.3918 N.am    1  UNL1       -0.2632
     11 C          65.9794   92.7580   12.4490 C.3     1  UNL1        0.1010
     12 C          66.4590   92.2853   13.7893 C.3     1  UNL1        0.0636
     13 C          65.4909   91.1410   13.7321 C.3     1  UNL1        0.1010
     14 H          63.3162   89.4170   12.5353 H       1  UNL1        0.1564
     15 C          67.4827   92.7602   14.7775 C.ar    1  UNL1       -0.0000
     16 C          68.3426   91.7674   15.5022 C.ar    1  UNL1       -0.0010
     17 C          69.3663   92.2423   16.4904 C.ar    1  UNL1        0.0204
     18 C          69.5300   93.7099   16.7539 C.ar    1  UNL1        0.0989
     19 N          68.6702   94.7026   16.0292 N.ar    1  UNL1       -0.2426
     20 C          67.6465   94.2277   15.0410 C.ar    1  UNL1        0.0947
     21 C          59.0818   88.0116    7.7425 C.3     1  UNL1        0.0941
     22 C          58.9144   86.5438    7.4827 C.3     1  UNL1        0.0262
     23 C          58.8520   89.9786    6.0608 C.2     1  UNL1        0.2226
     24 O          60.3350   89.9597    5.8361 O.2     1  UNL1       -0.2751
     25 N          58.2255   89.0045    7.0140 N.am    1  UNL1       -0.3022
     26 H          57.2521   89.0169    7.1614 H       1  UNL1        0.1497
     27 C          58.6332   92.0375    4.4913 C.3     1  UNL1        0.0101
     28 C          57.9956   90.9715    5.3323 C.3     1  UNL1        0.0851
@<TRIPOS>BOND
     1    27    28    1
     2    28    23    1
     3    23    24    2
     4    23    25   am
     5    25    21    1
     6    21    22    1
     7    21     1    1
     8     1     2   ar
     9     2     3   ar
    10     3     4   ar
    11     4     7    1
    12     7     8   am
    13     8     9    2
    14     8    10   am
    15    10    11    1
    16    11    12    1
    17    12    15    1
    18    15    16   ar
    19    16    17   ar
    20    17    18   ar
    21    18    19   ar
    22    19    20   ar
    23    12    13    1
    24     4     5   ar
    25     5     6   ar
    26     6     1   ar
    27    13    10    1
    28    20    15   ar
    29    25    26    1
    30     7    14    1
@<TRIPOS>MOLECULE
*****
 28 30 0 0 0
SMALL
GASTEIGER

@<TRIPOS>ATOM
      1 C          65.3274   91.8623   13.4290 C.ar    1  UNL1       -0.0044
      2 C          65.6207   90.8784   14.5226 C.ar    1  UNL1       -0.0014
      3 C          65.0345   89.4988   14.4673 C.ar    1  UNL1        0.0144
      4 C          64.1549   89.1031   13.3185 C.ar    1  UNL1        0.0516
      5 C          63.8616   90.0870   12.2250 C.ar    1  UNL1        0.0144
      6 C          64.4479   91.4666   12.2802 C.ar    1  UNL1       -0.0014
      7 N          63.5687   87.7235   13.2633 N.am    1  UNL1       -0.2681
      8 C          64.1945   86.6107   14.0506 C.2     1  UNL1        0.3077
      9 O          65.4065   86.8773   14.8931 O.2     1  UNL1       -0.2522
     10 N          63.6082   85.2311   13.9953 N.am    1  UNL1       -0.2632
     11 C          63.9440   83.9100   14.6217 C.3     1  UNL1        0.1010
     12 C          62.7792   83.2800   13.9172 C.3     1  UNL1        0.0636
     13 C          62.4434   84.6010   13.2909 C.3     1  UNL1        0.1010
     14 H          62.7732   87.5485   12.7103 H       1  UNL1        0.1564
     15 C          62.1929   81.9004   13.8620 C.ar    1  UNL1       -0.0000
     16 C          60.7733   81.6711   14.2890 C.ar    1  UNL1       -0.0010
     17 C          60.1871   80.2915   14.2337 C.ar    1  UNL1        0.0204
     18 C          61.0204   79.1413   13.7515 C.ar    1  UNL1        0.0989
     19 N          62.4399   79.3706   13.3245 N.ar    1  UNL1       -0.2426
     20 C          63.0262   80.7502   13.3797 C.ar    1  UNL1        0.0947
     21 C          65.9136   93.2419   13.4843 C.3     1  UNL1        0.0941
     22 C          66.6095   93.7119   14.7272 C.3     1  UNL1        0.0262
     23 C          66.6974   93.9457   11.1093 C.2     1  UNL1        0.2226
     24 O          67.7003   92.8304   11.1097 O.2     1  UNL1       -0.2751
     25 N          65.8040   94.1515   12.2966 N.am    1  UNL1       -0.3022
     26 H          65.1458   94.8836   12.2963 H       1  UNL1        0.1497
     27 C          67.6636   94.8570    8.8764 C.3     1  UNL1        0.0101
     28 C          66.5877   94.8554    9.9216 C.3     1  UNL1        0.0851
@<TRIPOS>BOND
     1    27    28    1
     2    28    23    1
     3    23    24    2
     4    23    25   am
     5    25    21    1
     6    21    22    1
     7    21     1    1
     8     1     2   ar
     9     2     3   ar
    10     3     4   ar
    11     4     7    1
    12     7     8   am
    13     8     9    2
    14     8    10   am
    15    10    11    1
    16    11    12    1
    17    12    15    1
    18    15    16   ar
    19    16    17   ar
    20    17    18   ar
    21    18    19   ar
    22    19    20   ar
    23    12    13    1
    24     4     5   ar
    25     5     6   ar
    26     6     1   ar
    27    13    10    1
    28    20    15   ar
    29    25    26    1
    30     7    14    1
@<TRIPOS>MOLECULE
*****
 28 30 0 0 0
SMALL
GASTEIGER

@<TRIPOS>ATOM
      1 C          72.7811   80.8470    9.7399 C.ar    1  UNL1       -0.0044
      2 C          73.1532   79.4476    9.3485 C.ar    1  UNL1       -0.0014
      3 C          73.0904   78.3435   10.3618 C.ar    1  UNL1        0.0144
      4 C          72.6554   78.6387   11.7667 C.ar    1  UNL1        0.0516
      5 C          72.2834   80.0381   12.1581 C.ar    1  UNL1        0.0144
      6 C          72.3462   81.1422   11.1448 C.ar    1  UNL1       -0.0014
      7 N          72.5926   77.5346   12.7801 N.am    1  UNL1       -0.2681
      8 C          71.2710   76.9267   13.1459 C.2     1  UNL1        0.3077
      9 O          70.0122   77.4229   12.4984 O.2     1  UNL1       -0.2522
     10 N          71.2082   75.8226   14.1593 N.am    1  UNL1       -0.2632
     11 C          70.1103   74.9962   14.7609 C.3     1  UNL1        0.1010
     12 C          71.1193   74.2611   15.5924 C.3     1  UNL1        0.0636
     13 C          72.2171   75.0874   14.9909 C.3     1  UNL1        0.1010
     14 H          73.4188   77.2089   13.2051 H       1  UNL1        0.1564
     15 C          71.0564   73.1570   16.6058 C.ar    1  UNL1       -0.0000
     16 C          71.3476   71.7441   16.1946 C.ar    1  UNL1       -0.0010
     17 C          71.2848   70.6400   17.2080 C.ar    1  UNL1        0.0204
     18 C          70.9307   70.9487   18.6326 C.ar    1  UNL1        0.0989
     19 N          70.6396   72.3615   19.0437 N.ar    1  UNL1       -0.2426
     20 C          70.7024   73.4657   18.0303 C.ar    1  UNL1        0.0947
     21 C          72.8440   81.9511    8.7265 C.3     1  UNL1        0.0941
     22 C          72.1492   83.2536    8.9924 C.3     1  UNL1        0.0262
     23 C          72.8752   81.3392    6.2018 C.2     1  UNL1        0.2226
     24 O          71.3912   81.1239    6.2356 O.2     1  UNL1       -0.2751
     25 N          73.6016   81.7528    7.4473 N.am    1  UNL1       -0.3022
     26 H          74.5757   81.8941    7.4251 H       1  UNL1        0.1497
     27 C          73.2802   81.9488    3.7089 C.3     1  UNL1        0.0101
     28 C          73.6330   81.1408    4.9225 C.3     1  UNL1        0.0851
@<TRIPOS>BOND
     1    27    28    1
     2    28    23    1
     3    23    24    2
     4    23    25   am
     5    25    21    1
     6    21    22    1
     7    21     1    1
     8     1     2   ar
     9     2     3   ar
    10     3     4   ar
    11     4     7    1
    12     7     8   am
    13     8     9    2
    14     8    10   am
    15    10    11    1
    16    11    12    1
    17    12    15    1
    18    15    16   ar
    19    16    17   ar
    20    17    18   ar
    21    18    19   ar
    22    19    20   ar
    23    12    13    1
    24     4     5   ar
    25     5     6   ar
    26     6     1   ar
    27    13    10    1
    28    20    15   ar
    29    25    26    1
    30     7    14    1
@<TRIPOS>MOLECULE
*****
 28 30 0 0 0
SMALL
GASTEIGER

@<TRIPOS>ATOM
      1 C          64.4041   90.9922   15.7545 C.ar    1  UNL1       -0.0044
      2 C          63.6204   89.9404   16.4821 C.ar    1  UNL1       -0.0014
      3 C          63.3138   88.6346   15.8106 C.ar    1  UNL1        0.0144
      4 C          63.7908   88.3807   14.4113 C.ar    1  UNL1        0.0516
      5 C          64.5745   89.4325   13.6837 C.ar    1  UNL1        0.0144
      6 C          64.8812   90.7382   14.3552 C.ar    1  UNL1       -0.0014
      7 N          63.4841   87.0749   13.7398 N.am    1  UNL1       -0.2681
      8 C          64.2239   85.8333   14.1409 C.2     1  UNL1        0.3077
      9 O          65.2704   85.8973   15.2137 O.2     1  UNL1       -0.2522
     10 N          63.9173   84.5275   13.4694 N.am    1  UNL1       -0.2632
     11 C          64.4297   83.1234   13.5963 C.3     1  UNL1        0.1010
     12 C          63.4836   82.6810   12.5196 C.3     1  UNL1        0.0636
     13 C          62.9712   84.0849   12.3928 C.3     1  UNL1        0.1010
     14 H          62.7973   87.0329   13.0357 H       1  UNL1        0.1564
     15 C          63.1769   81.3752   11.8481 C.ar    1  UNL1       -0.0000
     16 C          63.3386   81.2395   10.3629 C.ar    1  UNL1       -0.0010
     17 C          63.0319   79.9338    9.6914 C.ar    1  UNL1        0.0204
     18 C          62.5636   78.7637   10.5049 C.ar    1  UNL1        0.0989
     19 N          62.4020   78.8995   11.9900 N.ar    1  UNL1       -0.2426
     20 C          62.7087   80.2052   12.6616 C.ar    1  UNL1        0.0947
     21 C          64.7108   92.2979   16.4260 C.3     1  UNL1        0.0941
     22 C          63.5941   93.1572   16.9403 C.3     1  UNL1        0.0262
     23 C          66.8193   93.4734   15.4658 C.2     1  UNL1        0.2226
     24 O          66.0812   93.7561   14.1909 O.2     1  UNL1       -0.2751
     25 N          66.1341   92.7443   16.5833 N.am    1  UNL1       -0.3022
     26 H          66.6186   92.5588   17.4200 H       1  UNL1        0.1497
     27 C          69.3251   92.9073   15.8543 C.3     1  UNL1        0.0101
     28 C          68.2427   93.9198   15.6231 C.3     1  UNL1        0.0851
@<TRIPOS>BOND
     1    27    28    1
     2    28    23    1
     3    23    24    2
     4    23    25   am
     5    25    21    1
     6    21    22    1
     7    21     1    1
     8     1     2   ar
     9     2     3   ar
    10     3     4   ar
    11     4     7    1
    12     7     8   am
    13     8     9    2
    14     8    10   am
    15    10    11    1
    16    11    12    1
    17    12    15    1
    18    15    16   ar
    19    16    17   ar
    20    17    18   ar
    21    18    19   ar
    22    19    20   ar
    23    12    13    1
    24     4     5   ar
    25     5     6   ar
    26     6     1   ar
    27    13    10    1
    28    20    15   ar
    29    25    26    1
    30     7    14    1
@<TRIPOS>MOLECULE
*****
 28 30 0 0 0
SMALL
GASTEIGER

@<TRIPOS>ATOM
      1 C          59.8979   91.4757    4.5543 C.ar    1  UNL1       -0.0044
      2 C          61.3525   91.1284    4.4389 C.ar    1  UNL1       -0.0014
      3 C          62.1677   91.6796    3.3069 C.ar    1  UNL1        0.0144
      4 C          61.5284   92.5783    2.2903 C.ar    1  UNL1        0.0516
      5 C          60.0737   92.9257    2.4057 C.ar    1  UNL1        0.0144
      6 C          59.2585   92.3744    3.5377 C.ar    1  UNL1       -0.0014
      7 N          62.3436   93.1295    1.1582 N.am    1  UNL1       -0.2681
      8 C          61.8582   92.9881   -0.2540 C.2     1  UNL1        0.3077
      9 O          60.5575   92.2953   -0.5342 O.2     1  UNL1       -0.2522
     10 N          62.6734   93.5393   -1.3860 N.am    1  UNL1       -0.2632
     11 C          62.5207   93.5886   -2.8775 C.3     1  UNL1        0.1010
     12 C          63.8263   94.3189   -2.9869 C.3     1  UNL1        0.0636
     13 C          63.9790   94.2697   -1.4956 C.3     1  UNL1        0.1010
     14 H          63.1972   93.5842    1.3421 H       1  UNL1        0.1564
     15 C          64.6416   94.8702   -4.1190 C.ar    1  UNL1       -0.0000
     16 C          65.0799   96.3046   -4.0986 C.ar    1  UNL1       -0.0010
     17 C          65.8952   96.8559   -5.2306 C.ar    1  UNL1        0.0204
     18 C          66.2720   95.9727   -6.3831 C.ar    1  UNL1        0.0989
     19 N          65.8336   94.5384   -6.4034 N.ar    1  UNL1       -0.2426
     20 C          65.0184   93.9871   -5.2714 C.ar    1  UNL1        0.0947
     21 C          59.0827   90.9245    5.6864 C.3     1  UNL1        0.0941
     22 C          57.5913   90.8272    5.5588 C.3     1  UNL1        0.0262
     23 C          59.5463   89.0737    7.4498 C.2     1  UNL1        0.2226
     24 O          58.6576   88.1309    6.6940 O.2     1  UNL1       -0.2751
     25 N          59.7588   90.4705    6.9460 N.am    1  UNL1       -0.3022
     26 H          60.3421   91.0893    7.4421 H       1  UNL1        0.1497
     27 C          60.3495   89.5584    9.8726 C.3     1  UNL1        0.0101
     28 C          60.2225   88.6198    8.7095 C.3     1  UNL1        0.0851
@<TRIPOS>BOND
     1    27    28    1
     2    28    23    1
     3    23    24    2
     4    23    25   am
     5    25    21    1
     6    21    22    1
     7    21     1    1
     8     1     2   ar
     9     2     3   ar
    10     3     4   ar
    11     4     7    1
    12     7     8   am
    13     8     9    2
    14     8    10   am
    15    10    11    1
    16    11    12    1
    17    12    15    1
    18    15    16   ar
    19    16    17   ar
    20    17    18   ar
    21    18    19   ar
    22    19    20   ar
    23    12    13    1
    24     4     5   ar
    25     5     6   ar
    26     6     1   ar
    27    13    10    1
    28    20    15   ar
    29    25    26    1
    30     7    14    1
@<TRIPOS>MOLECULE
*****
 28 30 0 0 0
SMALL
GASTEIGER

@<TRIPOS>ATOM
      1 C          72.8562   79.4421   10.9222 C.ar    1  UNL1       -0.0044
      2 C          71.8163   79.3608   12.0001 C.ar    1  UNL1       -0.0014
      3 C          71.5466   78.0538   12.6850 C.ar    1  UNL1        0.0144
      4 C          72.3169   76.8281   12.2920 C.ar    1  UNL1        0.0516
      5 C          73.3567   76.9095   11.2140 C.ar    1  UNL1        0.0144
      6 C          73.6264   78.2164   10.5291 C.ar    1  UNL1       -0.0014
      7 N          72.0472   75.5212   12.9769 N.am    1  UNL1       -0.2681
      8 C          72.4641   75.3222   14.4040 C.2     1  UNL1        0.3077
      9 O          73.1507   76.4303   15.1462 O.2     1  UNL1       -0.2522
     10 N          72.1944   74.0153   15.0889 N.am    1  UNL1       -0.2632
     11 C          72.4542   73.4622   16.4588 C.3     1  UNL1        0.1010
     12 C          71.8131   72.1669   16.0575 C.3     1  UNL1        0.0636
     13 C          71.5533   72.7199   14.6876 C.3     1  UNL1        0.1010
     14 H          71.5966   74.7939   12.4898 H       1  UNL1        0.1564
     15 C          71.5434   70.8600   16.7424 C.ar    1  UNL1       -0.0000
     16 C          72.1989   69.6047   16.2477 C.ar    1  UNL1       -0.0010
     17 C          71.9293   68.2977   16.9326 C.ar    1  UNL1        0.0204
     18 C          71.0041   68.2460   18.1122 C.ar    1  UNL1        0.0989
     19 N          70.3486   69.5012   18.6068 N.ar    1  UNL1       -0.2426
     20 C          70.6182   70.8082   17.9219 C.ar    1  UNL1        0.0947
     21 C          73.1258   80.7491   10.2372 C.3     1  UNL1        0.0941
     22 C          73.5645   81.9390   11.0382 C.3     1  UNL1        0.0262
     23 C          72.1832   82.0134    8.1726 C.2     1  UNL1        0.2226
     24 O          71.5786   83.0438    9.0796 O.2     1  UNL1       -0.2751
     25 N          72.9568   80.8661    8.7514 N.am    1  UNL1       -0.3022
     26 H          73.3537   80.1898    8.1561 H       1  UNL1        0.1497
     27 C          71.3158   81.0443    5.9235 C.3     1  UNL1        0.0101
     28 C          72.0142   82.1304    6.6867 C.3     1  UNL1        0.0851
@<TRIPOS>BOND
     1    27    28    1
     2    28    23    1
     3    23    24    2
     4    23    25   am
     5    25    21    1
     6    21    22    1
     7    21     1    1
     8     1     2   ar
     9     2     3   ar
    10     3     4   ar
    11     4     7    1
    12     7     8   am
    13     8     9    2
    14     8    10   am
    15    10    11    1
    16    11    12    1
    17    12    15    1
    18    15    16   ar
    19    16    17   ar
    20    17    18   ar
    21    18    19   ar
    22    19    20   ar
    23    12    13    1
    24     4     5   ar
    25     5     6   ar
    26     6     1   ar
    27    13    10    1
    28    20    15   ar
    29    25    26    1
    30     7    14    1
@<TRIPOS>MOLECULE
*****
 28 30 0 0 0
SMALL
GASTEIGER

@<TRIPOS>ATOM
      1 C          63.5833   85.0645   13.5564 C.ar    1  UNL1       -0.0044
      2 C          63.8749   86.5355   13.5914 C.ar    1  UNL1       -0.0014
      3 C          63.2308   87.4517   12.5936 C.ar    1  UNL1        0.0144
      4 C          62.2949   86.8971   11.5609 C.ar    1  UNL1        0.0516
      5 C          62.0033   85.4261   11.5259 C.ar    1  UNL1        0.0144
      6 C          62.6475   84.5099   12.5236 C.ar    1  UNL1       -0.0014
      7 N          61.6507   87.8133   10.5632 N.am    1  UNL1       -0.2681
      8 C          60.9430   87.2438    9.3696 C.2     1  UNL1        0.3077
      9 O          60.8793   85.7580    9.1737 O.2     1  UNL1       -0.2522
     10 N          60.2988   88.1601    8.3719 N.am    1  UNL1       -0.2632
     11 C          59.5283   87.9689    7.0991 C.3     1  UNL1        0.1010
     12 C          59.3878   89.4559    6.9609 C.3     1  UNL1        0.0636
     13 C          60.1581   89.6471    8.2335 C.3     1  UNL1        0.1010
     14 H          61.6925   88.7885   10.6917 H       1  UNL1        0.1564
     15 C          58.7436   90.3721    5.9631 C.ar    1  UNL1       -0.0000
     16 C          59.5945   91.1941    5.0410 C.ar    1  UNL1       -0.0010
     17 C          58.9504   92.1104    4.0432 C.ar    1  UNL1        0.0204
     18 C          57.4552   92.2047    3.9677 C.ar    1  UNL1        0.0989
     19 N          56.6043   91.3827    4.8898 N.ar    1  UNL1       -0.2426
     20 C          57.2485   90.4665    5.8875 C.ar    1  UNL1        0.0947
     21 C          64.2275   84.1483   14.5541 C.3     1  UNL1        0.0941
     22 C          65.4406   84.5991   15.3124 C.3     1  UNL1        0.0262
     23 C          63.8505   81.6995   13.7721 C.2     1  UNL1        0.2226
     24 O          64.6113   81.9850   12.5113 O.2     1  UNL1       -0.2751
     25 N          63.6586   82.7812   14.7935 N.am    1  UNL1       -0.3022
     26 H          63.1593   82.5938   15.6211 H       1  UNL1        0.1497
     27 C          61.9200   79.9843   13.4872 C.3     1  UNL1        0.0101
     28 C          63.2815   80.3324   14.0116 C.3     1  UNL1        0.0851
@<TRIPOS>BOND
     1    27    28    1
     2    28    23    1
     3    23    24    2
     4    23    25   am
     5    25    21    1
     6    21    22    1
     7    21     1    1
     8     1     2   ar
     9     2     3   ar
    10     3     4   ar
    11     4     7    1
    12     7     8   am
    13     8     9    2
    14     8    10   am
    15    10    11    1
    16    11    12    1
    17    12    15    1
    18    15    16   ar
    19    16    17   ar
    20    17    18   ar
    21    18    19   ar
    22    19    20   ar
    23    12    13    1
    24     4     5   ar
    25     5     6   ar
    26     6     1   ar
    27    13    10    1
    28    20    15   ar
    29    25    26    1
    30     7    14    1
@<TRIPOS>MOLECULE
*****
 28 30 0 0 0
SMALL
GASTEIGER

@<TRIPOS>ATOM
      1 C          63.2773   83.8512   13.0163 C.ar    1  UNL1       -0.0044
      2 C          62.6149   83.1613   11.8608 C.ar    1  UNL1       -0.0014
      3 C          62.0299   83.9689   10.7403 C.ar    1  UNL1        0.0144
      4 C          62.1073   85.4665   10.7754 C.ar    1  UNL1        0.0516
      5 C          62.7696   86.1564   11.9309 C.ar    1  UNL1        0.0144
      6 C          63.3546   85.3487   13.0514 C.ar    1  UNL1       -0.0014
      7 N          61.5223   86.2742    9.6549 N.am    1  UNL1       -0.2681
      8 C          60.9938   87.6526    9.9204 C.2     1  UNL1        0.3077
      9 O          61.0504   88.2235   11.3065 O.2     1  UNL1       -0.2522
     10 N          60.4089   88.4603    8.8000 N.am    1  UNL1       -0.2632
     11 C          59.8025   89.8273    8.6819 C.3     1  UNL1        0.1010
     12 C          59.5816   89.6025    7.2154 C.3     1  UNL1        0.0636
     13 C          60.1878   88.2357    7.3334 C.3     1  UNL1        0.1010
     14 H          61.4852   85.8995    8.7452 H       1  UNL1        0.1564
     15 C          58.9966   90.4102    6.0949 C.ar    1  UNL1       -0.0000
     16 C          59.8991   91.1576    5.1584 C.ar    1  UNL1       -0.0010
     17 C          59.3141   91.9653    4.0380 C.ar    1  UNL1        0.0204
     18 C          57.8266   92.0256    3.8540 C.ar    1  UNL1        0.0989
     19 N          56.9241   91.2782    4.7905 N.ar    1  UNL1       -0.2426
     20 C          57.5091   90.4705    5.9109 C.ar    1  UNL1        0.0947
     21 C          63.8623   83.0435   14.1368 C.3     1  UNL1        0.0941
     22 C          64.1128   81.5761   13.9523 C.3     1  UNL1        0.0262
     23 C          63.1884   84.5854   16.1163 C.2     1  UNL1        0.2226
     24 O          61.8457   84.8079   15.4859 O.2     1  UNL1       -0.2751
     25 N          64.1967   83.7031   15.4417 N.am    1  UNL1       -0.3022
     26 H          65.0780   83.5571   15.8555 H       1  UNL1        0.1497
     27 C          62.7102   86.4103   17.9026 C.3     1  UNL1        0.0101
     28 C          63.5229   85.2450   17.4213 C.3     1  UNL1        0.0851
@<TRIPOS>BOND
     1    27    28    1
     2    28    23    1
     3    23    24    2
     4    23    25   am
     5    25    21    1
     6    21    22    1
     7    21     1    1
     8     1     2   ar
     9     2     3   ar
    10     3     4   ar
    11     4     7    1
    12     7     8   am
    13     8     9    2
    14     8    10   am
    15    10    11    1
    16    11    12    1
    17    12    15    1
    18    15    16   ar
    19    16    17   ar
    20    17    18   ar
    21    18    19   ar
    22    19    20   ar
    23    12    13    1
    24     4     5   ar
    25     5     6   ar
    26     6     1   ar
    27    13    10    1
    28    20    15   ar
    29    25    26    1
    30     7    14    1
@<TRIPOS>MOLECULE
*****
 28 30 0 0 0
SMALL
GASTEIGER

@<TRIPOS>ATOM
      1 C          63.0815   83.5859   14.3059 C.ar    1  UNL1       -0.0044
      2 C          63.7144   84.3292   15.4446 C.ar    1  UNL1       -0.0014
      3 C          64.1854   85.7400   15.2499 C.ar    1  UNL1        0.0144
      4 C          64.0235   86.4074   13.9164 C.ar    1  UNL1        0.0516
      5 C          63.3906   85.6641   12.7776 C.ar    1  UNL1        0.0144
      6 C          62.9196   84.2533   12.9724 C.ar    1  UNL1       -0.0014
      7 N          64.4945   87.8182   13.7217 N.am    1  UNL1       -0.2681
      8 C          63.8034   88.7099   12.7332 C.2     1  UNL1        0.3077
      9 O          62.6412   88.1910   11.9395 O.2     1  UNL1       -0.2522
     10 N          64.2744   90.1207   12.5385 N.am    1  UNL1       -0.2632
     11 C          63.8508   91.2705   11.6732 C.3     1  UNL1        0.1010
     12 C          64.9405   92.1158   12.2631 C.3     1  UNL1        0.0636
     13 C          65.3641   90.9661   13.1283 C.3     1  UNL1        0.1010
     14 H          65.2573   88.1588   14.2426 H       1  UNL1        0.1564
     15 C          65.4116   93.5265   12.0684 C.ar    1  UNL1       -0.0000
     16 C          65.2262   94.2028   10.7423 C.ar    1  UNL1       -0.0010
     17 C          65.6972   95.6136   10.5476 C.ar    1  UNL1        0.0204
     18 C          66.3536   96.3480   11.6789 C.ar    1  UNL1        0.0989
     19 N          66.5390   95.6717   13.0048 N.ar    1  UNL1       -0.2426
     20 C          66.0680   94.2610   13.1996 C.ar    1  UNL1        0.0947
     21 C          62.6105   82.1752   14.5006 C.3     1  UNL1        0.0941
     22 C          63.6042   81.0527   14.5495 C.3     1  UNL1        0.0262
     23 C          60.5794   80.5987   14.1270 C.2     1  UNL1        0.2226
     24 O          61.4779   79.5987   13.4617 O.2     1  UNL1       -0.2751
     25 N          61.1457   81.8869   14.6465 N.am    1  UNL1       -0.3022
     26 H          60.5560   82.5432   15.0832 H       1  UNL1        0.1497
     27 C          58.6552   78.9338   14.6521 C.3     1  UNL1        0.0101
     28 C          59.1146   80.3105   14.2730 C.3     1  UNL1        0.0851
@<TRIPOS>BOND
     1    27    28    1
     2    28    23    1
     3    23    24    2
     4    23    25   am
     5    25    21    1
     6    21    22    1
     7    21     1    1
     8     1     2   ar
     9     2     3   ar
    10     3     4   ar
    11     4     7    1
    12     7     8   am
    13     8     9    2
    14     8    10   am
    15    10    11    1
    16    11    12    1
    17    12    15    1
    18    15    16   ar
    19    16    17   ar
    20    17    18   ar
    21    18    19   ar
    22    19    20   ar
    23    12    13    1
    24     4     5   ar
    25     5     6   ar
    26     6     1   ar
    27    13    10    1
    28    20    15   ar
    29    25    26    1
    30     7    14    1
