@<TRIPOS>MOLECULE
*****
 36 39 0 0 0
SMALL
GASTEIGER

@<TRIPOS>ATOM
      1 N          62.9170   90.8353   11.6556 N.am    1  UNL1       -0.2438
      2 C          63.3658   91.5378   10.4086 C.3     1  UNL1        0.1009
      3 C          64.5362   92.4748   10.4555 C.3     1  UNL1        0.0666
      4 C          65.2578   92.7093   11.7493 C.3     1  UNL1        0.1664
      5 O          64.8090   92.0069   12.9965 O.3     1  UNL1       -0.4370
      6 C          63.6386   91.0699   12.9496 C.2     1  UNL1        0.4051
      7 O          63.1898   90.3674   14.1966 O.2     1  UNL1       -0.2262
      8 C          66.0531   93.6008   10.8422 C.ar    1  UNL1        0.0144
      9 C          65.8305   95.0840   10.8645 C.ar    1  UNL1        0.0014
     10 C          66.6258   95.9755    9.9573 C.ar    1  UNL1        0.0294
     11 C          67.6437   95.3836    9.0281 C.ar    1  UNL1        0.1401
     12 F          68.4391   96.2751    8.1210 F       1  UNL1       -0.2042
     13 C          67.8664   93.9004    9.0059 C.ar    1  UNL1        0.0294
     14 C          67.0711   93.0089    9.9130 C.ar    1  UNL1        0.0014
     15 C          60.3507   90.4442   11.5499 C.3     1  UNL1        0.0265
     16 C          61.7466   89.8983   11.6087 C.3     1  UNL1        0.1011
     17 C          61.9721   88.4154   11.6207 C.ar    1  UNL1       -0.0042
     18 C          61.0976   87.5171   10.7971 C.ar    1  UNL1       -0.0027
     19 C          61.3232   86.0342   10.8091 C.ar    1  UNL1       -0.0002
     20 C          62.4233   85.4496   11.6447 C.ar    1  UNL1        0.0021
     21 C          63.2978   86.3479   12.4682 C.ar    1  UNL1       -0.0002
     22 C          63.0722   87.8308   12.4562 C.ar    1  UNL1       -0.0027
     23 C          62.6488   83.9667   11.6566 C.ar    1  UNL1        0.0276
     24 C          62.2298   83.1539   12.8456 C.ar    1  UNL1        0.0045
     25 C          62.4553   81.6709   12.8575 C.ar    1  UNL1        0.0298
     26 C          63.0999   81.0009   11.6805 C.ar    1  UNL1        0.1424
     27 F          63.3254   79.5180   11.6924 F       1  UNL1       -0.2041
     28 C          63.5189   81.8138   10.4914 C.ar    1  UNL1        0.0592
     29 C          63.2934   83.2966   10.4795 C.ar    1  UNL1        0.1423
     30 F          63.7124   84.1095    9.2905 F       1  UNL1       -0.2041
     31 C          66.2556   93.2535   12.7283 C.3     1  UNL1        0.1292
     32 C          67.1571   92.3183   13.4784 C.2     1  UNL1        0.2233
     33 N          66.8540   91.9675   14.9050 N.am    1  UNL1       -0.3287
     34 O          68.3616   91.7339   12.8020 O.2     1  UNL1       -0.2752
     35 H          66.0634   92.3510   15.3489 H       1  UNL1        0.1449
     36 H          67.4457   91.3537   15.3974 H       1  UNL1        0.1449
@<TRIPOS>BOND
     1    16    15    1
     2    16    17    1
     3    17    18   ar
     4    18    19   ar
     5    19    20   ar
     6    20    23    1
     7    23    24   ar
     8    24    25   ar
     9    25    26   ar
    10    26    27    1
    11    26    28   ar
    12    28    29   ar
    13    29    30    1
    14    20    21   ar
    15    21    22   ar
    16    16     1    1
    17     1     2    1
    18     2     3    1
    19     3     4    1
    20     4    31    1
    21    31    32    1
    22    32    33   am
    23    32    34    2
    24     4     8    1
    25     8     9   ar
    26     9    10   ar
    27    10    11   ar
    28    11    12    1
    29    11    13   ar
    30    13    14   ar
    31     4     5    1
    32     5     6    1
    33     6     7    2
    34    22    17   ar
    35     6     1   am
    36    29    23   ar
    37    14     8   ar
    38    33    35    1
    39    33    36    1
@<TRIPOS>MOLECULE
*****
 36 39 0 0 0
SMALL
GASTEIGER

@<TRIPOS>ATOM
      1 N          63.3178   90.3335   12.0667 N.am    1  UNL1       -0.2438
      2 C          64.0338   90.2499   13.3821 C.3     1  UNL1        0.1009
      3 C          65.2405   91.1043   13.6348 C.3     1  UNL1        0.0666
      4 C          65.7313   92.0422   12.5721 C.3     1  UNL1        0.1664
      5 O          65.0153   92.1259   11.2567 O.3     1  UNL1       -0.4370
      6 C          63.8085   91.2716   11.0039 C.2     1  UNL1        0.4051
      7 O          63.0925   91.3552    9.6885 O.2     1  UNL1       -0.2262
      8 C          66.7393   92.3176   13.6483 C.ar    1  UNL1        0.0144
      9 C          68.1942   92.0508   13.3991 C.ar    1  UNL1        0.0014
     10 C          69.2023   92.3261   14.4753 C.ar    1  UNL1        0.0294
     11 C          68.7553   92.8682   15.8006 C.ar    1  UNL1        0.1401
     12 F          69.7634   93.1435   16.8767 F       1  UNL1       -0.2042
     13 C          67.3004   93.1350   16.0498 C.ar    1  UNL1        0.0294
     14 C          66.2924   92.8597   14.9736 C.ar    1  UNL1        0.0014
     15 C          60.7746   90.1191   11.5807 C.3     1  UNL1        0.0265
     16 C          62.1111   89.4792   11.8140 C.3     1  UNL1        0.1011
     17 C          62.2408   87.9849   11.7946 C.ar    1  UNL1       -0.0042
     18 C          61.4210   87.1733   10.8359 C.ar    1  UNL1       -0.0027
     19 C          61.5507   85.6791   10.8165 C.ar    1  UNL1       -0.0002
     20 C          62.5003   84.9965   11.7558 C.ar    1  UNL1        0.0021
     21 C          63.3201   85.8081   12.7145 C.ar    1  UNL1       -0.0002
     22 C          63.1904   87.3023   12.7339 C.ar    1  UNL1       -0.0027
     23 C          62.6300   83.5022   11.7364 C.ar    1  UNL1        0.0276
     24 C          62.1746   82.6944   12.9154 C.ar    1  UNL1        0.0045
     25 C          62.3044   81.2001   12.8960 C.ar    1  UNL1        0.0298
     26 C          62.8895   80.5136   11.6976 C.ar    1  UNL1        0.1424
     27 F          63.0193   79.0194   11.6781 F       1  UNL1       -0.2041
     28 C          63.3450   81.3214   10.5185 C.ar    1  UNL1        0.0592
     29 C          63.2152   82.8157   10.5380 C.ar    1  UNL1        0.1423
     30 F          63.6706   83.6235    9.3589 F       1  UNL1       -0.2041
     31 C          66.5721   93.0759   11.8832 C.3     1  UNL1        0.1292
     32 C          66.0256   94.4531   11.6495 C.2     1  UNL1        0.2233
     33 N          65.2977   94.7649   10.3755 N.am    1  UNL1       -0.3287
     34 O          66.2069   95.5184   12.6897 O.2     1  UNL1       -0.2752
     35 H          65.1787   94.0657    9.6928 H       1  UNL1        0.1449
     36 H          64.9390   95.6688   10.2221 H       1  UNL1        0.1449
@<TRIPOS>BOND
     1    16    15    1
     2    16    17    1
     3    17    18   ar
     4    18    19   ar
     5    19    20   ar
     6    20    23    1
     7    23    24   ar
     8    24    25   ar
     9    25    26   ar
    10    26    27    1
    11    26    28   ar
    12    28    29   ar
    13    29    30    1
    14    20    21   ar
    15    21    22   ar
    16    16     1    1
    17     1     2    1
    18     2     3    1
    19     3     4    1
    20     4    31    1
    21    31    32    1
    22    32    33   am
    23    32    34    2
    24     4     8    1
    25     8     9   ar
    26     9    10   ar
    27    10    11   ar
    28    11    12    1
    29    11    13   ar
    30    13    14   ar
    31     4     5    1
    32     5     6    1
    33     6     7    2
    34    22    17   ar
    35     6     1   am
    36    29    23   ar
    37    14     8   ar
    38    33    35    1
    39    33    36    1
@<TRIPOS>MOLECULE
*****
 36 39 0 0 0
SMALL
GASTEIGER

@<TRIPOS>ATOM
      1 N          62.5626   87.9111   12.3975 N.am    1  UNL1       -0.2438
      2 C          62.1919   86.8885   11.3646 C.3     1  UNL1        0.1009
      3 C          62.6911   85.4797   11.4911 C.3     1  UNL1        0.0666
      4 C          63.5609   85.0934   12.6504 C.3     1  UNL1        0.1664
      5 O          63.9316   86.1160   13.6834 O.3     1  UNL1       -0.4370
      6 C          63.4325   87.5248   13.5569 C.2     1  UNL1        0.4051
      7 O          63.8032   88.5474   14.5898 O.2     1  UNL1       -0.2262
      8 C          63.4829   83.7780   11.9336 C.ar    1  UNL1        0.0144
      9 C          62.5617   82.7049   12.4336 C.ar    1  UNL1        0.0014
     10 C          62.4837   81.3895   11.7169 C.ar    1  UNL1        0.0294
     11 C          63.3269   81.1473   10.5002 C.ar    1  UNL1        0.1401
     12 F          63.2489   79.8319    9.7835 F       1  UNL1       -0.2042
     13 C          64.2481   82.2203   10.0002 C.ar    1  UNL1        0.0294
     14 C          64.3261   83.5357   10.7170 C.ar    1  UNL1        0.0014
     15 C          60.6515   89.6525   12.6528 C.3     1  UNL1        0.0265
     16 C          62.0635   89.3199   12.2711 C.3     1  UNL1        0.1011
     17 C          62.9763   90.3963   11.7629 C.ar    1  UNL1       -0.0042
     18 C          64.0433   90.9579   12.6551 C.ar    1  UNL1       -0.0027
     19 C          64.9561   92.0341   12.1469 C.ar    1  UNL1       -0.0002
     20 C          64.8020   92.5489   10.7464 C.ar    1  UNL1        0.0021
     21 C          63.7350   91.9873    9.8542 C.ar    1  UNL1       -0.0002
     22 C          62.8222   90.9110   10.3624 C.ar    1  UNL1       -0.0027
     23 C          65.7149   93.6252   10.2382 C.ar    1  UNL1        0.0276
     24 C          65.2519   95.0517   10.2142 C.ar    1  UNL1        0.0045
     25 C          66.1648   96.1281    9.7059 C.ar    1  UNL1        0.0298
     26 C          67.5406   95.7778    9.2218 C.ar    1  UNL1        0.1424
     27 F          68.4535   96.8540    8.7136 F       1  UNL1       -0.2041
     28 C          68.0036   94.3512    9.2459 C.ar    1  UNL1        0.0592
     29 C          67.0907   93.2749    9.7541 C.ar    1  UNL1        0.1423
     30 F          67.5537   91.8483    9.7782 F       1  UNL1       -0.2041
     31 C          64.4037   84.2503   13.5609 C.3     1  UNL1        0.1292
     32 C          64.0524   84.1346   15.0145 C.2     1  UNL1        0.2233
     33 N          64.5706   85.1455   15.9941 N.am    1  UNL1       -0.3287
     34 O          63.1829   83.0080   15.4886 O.2     1  UNL1       -0.2752
     35 H          65.1413   85.8849   15.6829 H       1  UNL1        0.1449
     36 H          64.3400   85.0696   16.9482 H       1  UNL1        0.1449
@<TRIPOS>BOND
     1    16    15    1
     2    16    17    1
     3    17    18   ar
     4    18    19   ar
     5    19    20   ar
     6    20    23    1
     7    23    24   ar
     8    24    25   ar
     9    25    26   ar
    10    26    27    1
    11    26    28   ar
    12    28    29   ar
    13    29    30    1
    14    20    21   ar
    15    21    22   ar
    16    16     1    1
    17     1     2    1
    18     2     3    1
    19     3     4    1
    20     4    31    1
    21    31    32    1
    22    32    33   am
    23    32    34    2
    24     4     8    1
    25     8     9   ar
    26     9    10   ar
    27    10    11   ar
    28    11    12    1
    29    11    13   ar
    30    13    14   ar
    31     4     5    1
    32     5     6    1
    33     6     7    2
    34    22    17   ar
    35     6     1   am
    36    29    23   ar
    37    14     8   ar
    38    33    35    1
    39    33    36    1
@<TRIPOS>MOLECULE
*****
 36 39 0 0 0
SMALL
GASTEIGER

@<TRIPOS>ATOM
      1 N          64.0179   90.9084   13.1330 N.am    1  UNL1       -0.2438
      2 C          64.2283   91.4996   11.7706 C.3     1  UNL1        0.1009
      3 C          65.1491   92.6707   11.5952 C.3     1  UNL1        0.0666
      4 C          65.8595   93.2505   12.7822 C.3     1  UNL1        0.1664
      5 O          65.6492   92.6593   14.1447 O.3     1  UNL1       -0.4370
      6 C          64.7284   91.4882   14.3201 C.2     1  UNL1        0.4051
      7 O          64.5180   90.8970   15.6825 O.2     1  UNL1       -0.2262
      8 C          66.3793   94.1519   11.7017 C.ar    1  UNL1        0.0144
      9 C          67.0888   93.5689   10.5157 C.ar    1  UNL1        0.0014
     10 C          67.6086   94.4703    9.4351 C.ar    1  UNL1        0.0294
     11 C          67.4188   95.9545    9.5408 C.ar    1  UNL1        0.1401
     12 F          67.9386   96.8558    8.4603 F       1  UNL1       -0.2042
     13 C          66.7093   96.5374   10.7268 C.ar    1  UNL1        0.0294
     14 C          66.1895   95.6360   11.8074 C.ar    1  UNL1        0.0014
     15 C          62.4775   89.4643   14.6468 C.3     1  UNL1        0.0265
     16 C          63.0971   89.7373   13.3084 C.3     1  UNL1        0.1011
     17 C          62.7961   88.8392   12.1452 C.ar    1  UNL1       -0.0042
     18 C          62.8953   87.3507   12.3017 C.ar    1  UNL1       -0.0027
     19 C          62.5942   86.4527   11.1386 C.ar    1  UNL1       -0.0002
     20 C          62.1939   87.0431    9.8190 C.ar    1  UNL1        0.0021
     21 C          62.0947   88.5316    9.6626 C.ar    1  UNL1       -0.0002
     22 C          62.3958   89.4296   10.8257 C.ar    1  UNL1       -0.0027
     23 C          61.8928   86.1450    8.6559 C.ar    1  UNL1        0.0276
     24 C          62.9865   85.3244    8.0392 C.ar    1  UNL1        0.0045
     25 C          62.6855   84.4263    6.8760 C.ar    1  UNL1        0.0298
     26 C          61.2906   84.3488    6.3297 C.ar    1  UNL1        0.1424
     27 F          60.9895   83.4508    5.1666 F       1  UNL1       -0.2041
     28 C          60.1969   85.1695    6.9465 C.ar    1  UNL1        0.0592
     29 C          60.4980   86.0675    8.1096 C.ar    1  UNL1        0.1423
     30 F          59.4043   86.8882    8.7264 F       1  UNL1       -0.2041
     31 C          66.7505   94.1434   13.5940 C.3     1  UNL1        0.1292
     32 C          67.7095   93.5482   14.5820 C.2     1  UNL1        0.2233
     33 N          67.5554   93.8389   16.0455 N.am    1  UNL1       -0.3287
     34 O          68.8225   92.6622   14.1065 O.2     1  UNL1       -0.2752
     35 H          66.8248   94.4204   16.3575 H       1  UNL1        0.1449
     36 H          68.1848   93.4483   16.6939 H       1  UNL1        0.1449
@<TRIPOS>BOND
     1    16    15    1
     2    16    17    1
     3    17    18   ar
     4    18    19   ar
     5    19    20   ar
     6    20    23    1
     7    23    24   ar
     8    24    25   ar
     9    25    26   ar
    10    26    27    1
    11    26    28   ar
    12    28    29   ar
    13    29    30    1
    14    20    21   ar
    15    21    22   ar
    16    16     1    1
    17     1     2    1
    18     2     3    1
    19     3     4    1
    20     4    31    1
    21    31    32    1
    22    32    33   am
    23    32    34    2
    24     4     8    1
    25     8     9   ar
    26     9    10   ar
    27    10    11   ar
    28    11    12    1
    29    11    13   ar
    30    13    14   ar
    31     4     5    1
    32     5     6    1
    33     6     7    2
    34    22    17   ar
    35     6     1   am
    36    29    23   ar
    37    14     8   ar
    38    33    35    1
    39    33    36    1
