@<TRIPOS>MOLECULE
*****
 30 33 0 0 0
SMALL
GASTEIGER

@<TRIPOS>ATOM
      1 N          63.0430   90.1463   11.4376 N.am    1  UNL1       -0.2496
      2 C          63.9566   91.2754   11.0626 C.3     1  UNL1        0.1267
      3 C          64.6684   91.7272   12.3032 C.ar    1  UNL1        0.0200
      4 C          64.1947   90.8775   13.4450 C.ar    1  UNL1        0.1322
      5 N          64.7394   91.1032   14.8242 N.ar    1  UNL1       -0.2456
      6 C          65.7577   92.1787   15.0617 C.ar    1  UNL1        0.0568
      7 C          66.3023   92.4044   16.4411 C.3     1  UNL1        0.0518
      8 C          66.2313   93.0284   13.9200 C.ar    1  UNL1        0.0068
      9 C          65.6867   92.8027   12.5407 C.ar    1  UNL1       -0.0015
     10 C          63.1902   89.9004   12.9100 C.2     1  UNL1        0.2705
     11 O          62.4608   88.8601   13.7074 O.2     1  UNL1       -0.2679
     12 C          66.1604   93.6525   11.3990 C.ar    1  UNL1        0.0102
     13 C          65.5213   94.9845   11.1399 C.ar    1  UNL1        0.0017
     14 C          65.9950   95.8342    9.9981 C.ar    1  UNL1        0.0114
     15 C          67.1079   95.3519    9.1156 C.ar    1  UNL1        0.0585
     16 CL         67.5817   96.2016    7.9739 Cl      1  UNL1       -0.0822
     17 C          67.7470   94.0199    9.3747 C.ar    1  UNL1        0.0228
     18 C          67.2732   93.1702   10.5164 C.ar    1  UNL1        0.0585
     19 CL         67.9123   91.8381   10.7756 Cl      1  UNL1       -0.0822
     20 C          59.4335   87.1412    7.7038 C.3     1  UNL1        0.0310
     21 C          60.3359   87.8925    8.6372 C.ar    1  UNL1       -0.0218
     22 C          61.4791   87.1873    9.3048 C.ar    1  UNL1       -0.0030
     23 C          62.3815   87.9386   10.2383 C.ar    1  UNL1        0.0146
     24 C          62.1406   89.3951   10.5042 C.ar    1  UNL1        0.0545
     25 C          60.9974   90.1003    9.8366 C.ar    1  UNL1        0.0146
     26 C          60.0950   89.3489    8.9031 C.ar    1  UNL1       -0.0030
     27 C          67.2497   94.1039   14.1576 C.3     1  UNL1        0.0934
     28 N          68.5088   93.7915   14.9106 N.3     1  UNL1       -0.3174
     29 H          68.2783   93.5583   15.8764 H       1  UNL1        0.1192
     30 H          69.1250   94.6042   14.8947 H       1  UNL1        0.1192
@<TRIPOS>BOND
     1    20    21    1
     2    21    22   ar
     3    22    23   ar
     4    23    24   ar
     5    24     1    1
     6     1     2    1
     7     2     3    1
     8     3     4   ar
     9     4     5   ar
    10     5     6   ar
    11     6     7    1
    12     6     8   ar
    13     8    27    1
    14    27    28    1
    15     8     9   ar
    16     9    12    1
    17    12    13   ar
    18    13    14   ar
    19    14    15   ar
    20    15    16    1
    21    15    17   ar
    22    17    18   ar
    23    18    19    1
    24     4    10    1
    25    10    11    2
    26    24    25   ar
    27    25    26   ar
    28    26    21   ar
    29    10     1   am
    30     9     3   ar
    31    18    12   ar
    32    28    29    1
    33    28    30    1
@<TRIPOS>MOLECULE
*****
 30 33 0 0 0
SMALL
GASTEIGER

@<TRIPOS>ATOM
      1 N          63.1525   89.8479   12.0120 N.am    1  UNL1       -0.2496
      2 C          63.1367   88.3688   11.7629 C.3     1  UNL1        0.1267
      3 C          62.1558   88.0947   10.6616 C.ar    1  UNL1        0.0200
      4 C          61.5654   89.4044   10.2301 C.ar    1  UNL1        0.1322
      5 N          60.5433   89.4410    9.1329 N.ar    1  UNL1       -0.2456
      6 C          60.1115   88.1681    8.4673 C.ar    1  UNL1        0.0568
      7 C          59.0892   88.2048    7.3701 C.3     1  UNL1        0.0518
      8 C          60.7018   86.8585    8.8988 C.ar    1  UNL1        0.0068
      9 C          61.7241   86.8217    9.9960 C.ar    1  UNL1       -0.0015
     10 C          62.1814   90.4879   11.0647 C.2     1  UNL1        0.2705
     11 O          61.8793   91.9540   10.9688 O.2     1  UNL1       -0.2679
     12 C          62.3144   85.5120   10.4275 C.ar    1  UNL1        0.0102
     13 C          61.9873   84.9511   11.7797 C.ar    1  UNL1        0.0017
     14 C          62.5777   83.6414   12.2111 C.ar    1  UNL1        0.0114
     15 C          63.4952   82.8927   11.2904 C.ar    1  UNL1        0.0585
     16 CL         64.0855   81.5829   11.7218 Cl      1  UNL1       -0.0822
     17 C          63.8222   83.4536    9.9382 C.ar    1  UNL1        0.0228
     18 C          63.2318   84.7633    9.5068 C.ar    1  UNL1        0.0585
     19 CL         63.5589   85.3243    8.1547 Cl      1  UNL1       -0.0822
     20 C          66.5104   92.7031   16.0829 C.3     1  UNL1        0.0310
     21 C          65.6709   91.9893   15.0652 C.ar    1  UNL1       -0.0218
     22 C          65.8740   92.2584   13.6036 C.ar    1  UNL1       -0.0030
     23 C          65.0345   91.5445   12.5859 C.ar    1  UNL1        0.0146
     24 C          63.9919   90.5617   13.0297 C.ar    1  UNL1        0.0545
     25 C          63.7888   90.2926   14.4914 C.ar    1  UNL1        0.0146
     26 C          64.6284   91.0065   15.5091 C.ar    1  UNL1       -0.0030
     27 C          60.2700   85.5854    8.2332 C.3     1  UNL1        0.0934
     28 N          60.6442   85.3216    6.8048 N.3     1  UNL1       -0.3174
     29 H          60.1766   85.9973    6.2005 H       1  UNL1        0.1192
     30 H          60.3559   84.3779    6.5465 H       1  UNL1        0.1192
@<TRIPOS>BOND
     1    20    21    1
     2    21    22   ar
     3    22    23   ar
     4    23    24   ar
     5    24     1    1
     6     1     2    1
     7     2     3    1
     8     3     4   ar
     9     4     5   ar
    10     5     6   ar
    11     6     7    1
    12     6     8   ar
    13     8    27    1
    14    27    28    1
    15     8     9   ar
    16     9    12    1
    17    12    13   ar
    18    13    14   ar
    19    14    15   ar
    20    15    16    1
    21    15    17   ar
    22    17    18   ar
    23    18    19    1
    24     4    10    1
    25    10    11    2
    26    24    25   ar
    27    25    26   ar
    28    26    21   ar
    29    10     1   am
    30     9     3   ar
    31    18    12   ar
    32    28    29    1
    33    28    30    1
@<TRIPOS>MOLECULE
*****
 30 33 0 0 0
SMALL
GASTEIGER

@<TRIPOS>ATOM
      1 N          62.7624   90.0023   11.6834 N.am    1  UNL1       -0.2496
      2 C          63.9335   90.8177   11.2212 C.3     1  UNL1        0.1267
      3 C          64.6045   91.3934   12.4329 C.ar    1  UNL1        0.0200
      4 C          63.8481   90.9339   13.6440 C.ar    1  UNL1        0.1322
      5 N          64.2938   91.3577   15.0121 N.ar    1  UNL1       -0.2456
      6 C          65.4959   92.2410   15.1691 C.ar    1  UNL1        0.0568
      7 C          65.9416   92.6649   16.5373 C.3     1  UNL1        0.0518
      8 C          66.2523   92.7006   13.9581 C.ar    1  UNL1        0.0068
      9 C          65.8066   92.2768   12.5899 C.ar    1  UNL1       -0.0015
     10 C          62.7096   90.0741   13.1808 C.2     1  UNL1        0.2705
     11 O          61.6963   89.4039   14.0604 O.2     1  UNL1       -0.2679
     12 C          66.5631   92.7363   11.3789 C.ar    1  UNL1        0.0102
     13 C          67.5440   91.8169   10.7137 C.ar    1  UNL1        0.0017
     14 C          68.3004   92.2766    9.5027 C.ar    1  UNL1        0.0114
     15 C          68.0759   93.6556    8.9569 C.ar    1  UNL1        0.0585
     16 CL         68.8323   94.1153    7.7459 Cl      1  UNL1       -0.0822
     17 C          67.0950   94.5750    9.6221 C.ar    1  UNL1        0.0228
     18 C          66.3385   94.1154   10.8331 C.ar    1  UNL1        0.0585
     19 CL         65.3576   95.0347   11.4983 Cl      1  UNL1       -0.0822
     20 C          58.9569   86.9836    8.1612 C.3     1  UNL1        0.0310
     21 C          59.9083   87.7383    9.0418 C.ar    1  UNL1       -0.0218
     22 C          60.0360   89.2266    8.9058 C.ar    1  UNL1       -0.0030
     23 C          60.9874   89.9813    9.7864 C.ar    1  UNL1        0.0146
     24 C          61.8110   89.2476   10.8029 C.ar    1  UNL1        0.0545
     25 C          61.6833   87.7593   10.9389 C.ar    1  UNL1        0.0146
     26 C          60.7319   87.0046   10.0583 C.ar    1  UNL1       -0.0030
     27 C          67.4544   93.5840   14.1152 C.3     1  UNL1        0.0934
     28 N          68.7641   92.9976   14.5520 N.3     1  UNL1       -0.3174
     29 H          68.6800   92.6522   15.5081 H       1  UNL1        0.1192
     30 H          69.4881   93.7150   14.5121 H       1  UNL1        0.1192
@<TRIPOS>BOND
     1    20    21    1
     2    21    22   ar
     3    22    23   ar
     4    23    24   ar
     5    24     1    1
     6     1     2    1
     7     2     3    1
     8     3     4   ar
     9     4     5   ar
    10     5     6   ar
    11     6     7    1
    12     6     8   ar
    13     8    27    1
    14    27    28    1
    15     8     9   ar
    16     9    12    1
    17    12    13   ar
    18    13    14   ar
    19    14    15   ar
    20    15    16    1
    21    15    17   ar
    22    17    18   ar
    23    18    19    1
    24     4    10    1
    25    10    11    2
    26    24    25   ar
    27    25    26   ar
    28    26    21   ar
    29    10     1   am
    30     9     3   ar
    31    18    12   ar
    32    28    29    1
    33    28    30    1
@<TRIPOS>MOLECULE
*****
 30 33 0 0 0
SMALL
GASTEIGER

@<TRIPOS>ATOM
      1 N          61.6656   87.3039   10.4333 N.am    1  UNL1       -0.2496
      2 C          62.0204   85.8555   10.5950 C.3     1  UNL1        0.1267
      3 C          62.8312   85.7141   11.8490 C.ar    1  UNL1        0.0200
      4 C          62.9774   87.0751   12.4624 C.ar    1  UNL1        0.1322
      5 N          63.7477   87.2439   13.7384 N.ar    1  UNL1       -0.2456
      6 C          64.3716   86.0516   14.4011 C.ar    1  UNL1        0.0568
      7 C          65.1419   86.2204   15.6772 C.3     1  UNL1        0.0518
      8 C          64.2254   84.6906   13.7878 C.ar    1  UNL1        0.0068
      9 C          63.4552   84.5218   12.5117 C.ar    1  UNL1       -0.0015
     10 C          62.2571   88.0577   11.5874 C.2     1  UNL1        0.2705
     11 O          62.1474   89.5347   11.8249 O.2     1  UNL1       -0.2679
     12 C          63.3090   83.1607   11.8983 C.ar    1  UNL1        0.0102
     13 C          64.0020   82.8417   10.6069 C.ar    1  UNL1        0.0017
     14 C          63.8558   81.4806    9.9937 C.ar    1  UNL1        0.0114
     15 C          63.0165   80.4386   10.6718 C.ar    1  UNL1        0.0585
     16 CL         62.8702   79.0776   10.0586 Cl      1  UNL1       -0.0822
     17 C          62.3234   80.7577   11.9633 C.ar    1  UNL1        0.0228
     18 C          62.4697   82.1188   12.5765 C.ar    1  UNL1        0.0585
     19 CL         61.7766   82.4379   13.8679 Cl      1  UNL1       -0.0822
     20 C          58.4458   89.6678    5.9561 C.3     1  UNL1        0.0310
     21 C          59.2508   89.0769    7.0754 C.ar    1  UNL1       -0.0218
     22 C          60.0037   89.9739    8.0126 C.ar    1  UNL1       -0.0030
     23 C          60.8087   89.3828    9.1319 C.ar    1  UNL1        0.0146
     24 C          60.8607   87.8949    9.3140 C.ar    1  UNL1        0.0545
     25 C          60.1077   86.9978    8.3768 C.ar    1  UNL1        0.0146
     26 C          59.3028   87.5889    7.2575 C.ar    1  UNL1       -0.0030
     27 C          64.8494   83.4983   14.4504 C.3     1  UNL1        0.0934
     28 N          64.2624   82.9521   15.7181 N.3     1  UNL1       -0.3174
     29 H          64.3691   83.6380   16.4654 H       1  UNL1        0.1192
     30 H          64.7472   82.0919   15.9743 H       1  UNL1        0.1192
@<TRIPOS>BOND
     1    20    21    1
     2    21    22   ar
     3    22    23   ar
     4    23    24   ar
     5    24     1    1
     6     1     2    1
     7     2     3    1
     8     3     4   ar
     9     4     5   ar
    10     5     6   ar
    11     6     7    1
    12     6     8   ar
    13     8    27    1
    14    27    28    1
    15     8     9   ar
    16     9    12    1
    17    12    13   ar
    18    13    14   ar
    19    14    15   ar
    20    15    16    1
    21    15    17   ar
    22    17    18   ar
    23    18    19    1
    24     4    10    1
    25    10    11    2
    26    24    25   ar
    27    25    26   ar
    28    26    21   ar
    29    10     1   am
    30     9     3   ar
    31    18    12   ar
    32    28    29    1
    33    28    30    1
