@<TRIPOS>MOLECULE
*****
 29 32 0 0 0
SMALL
GASTEIGER

@<TRIPOS>ATOM
      1 N          63.4307   83.9817   10.6141 N.am    1  UNL1       -0.2863
      2 C          62.4041   85.0306   10.3044 C.2     1  UNL1        0.3047
      3 O          61.2654   85.2684   11.2515 O.2     1  UNL1       -0.2525
      4 N          62.5162   85.8418    9.0477 N.am    1  UNL1       -0.2683
      5 H          64.1780   83.8257    9.9925 H       1  UNL1        0.1512
      6 H          63.2635   85.6858    8.4261 H       1  UNL1        0.1564
      7 C          62.7099   79.7091   13.9502 C.3     1  UNL1        0.0437
      8 C          62.9101   80.8911   13.0486 C.3     1  UNL1        0.1352
      9 C          62.6562   79.8235   12.0259 C.3     1  UNL1        0.0437
     10 C          63.0222   81.7022   11.7918 C.3     1  UNL1        0.0642
     11 C          63.3186   83.1705   11.8708 C.3     1  UNL1        0.1019
     12 C          63.5030   83.8277   13.2066 C.ar    1  UNL1        0.0298
     13 C          63.7994   85.2959   13.2856 C.ar    1  UNL1        0.0026
     14 C          63.9838   85.9530   14.6213 C.ar    1  UNL1        0.0296
     15 C          63.8717   85.1418   15.8781 C.ar    1  UNL1        0.1431
     16 F          64.0561   85.7989   17.2138 F       1  UNL1       -0.2041
     17 C          63.5753   83.6735   15.7991 C.ar    1  UNL1        0.0662
     18 C          63.3909   83.0165   14.4633 C.ar    1  UNL1        0.1379
     19 O          63.0945   81.5481   14.3843 O.3     1  UNL1       -0.4827
     20 C          61.4895   86.8908    8.7380 C.ar    1  UNL1        0.0516
     21 C          60.4965   86.6663    7.6365 C.ar    1  UNL1        0.0147
     22 C          59.4700   87.7152    7.3269 C.ar    1  UNL1        0.0013
     23 C          59.4364   88.9886    8.1189 C.ar    1  UNL1        0.0016
     24 C          60.4294   89.2131    9.2205 C.ar    1  UNL1        0.0204
     25 C          60.3958   90.4865   10.0125 C.ar    1  UNL1        0.0989
     26 N          61.3888   90.7110   11.1141 N.ar    1  UNL1       -0.2423
     27 C          62.4155   89.6621   11.4237 C.ar    1  UNL1        0.0989
     28 C          62.4490   88.3886   10.6317 C.ar    1  UNL1        0.0219
     29 C          61.4560   88.1642    9.5300 C.ar    1  UNL1        0.0166
@<TRIPOS>BOND
     1     7     8    1
     2     8     9    1
     3     8    10    1
     4    10    11    1
     5    11     1    1
     6     1     2   am
     7     2     3    2
     8     2     4   am
     9     4    20    1
    10    20    21   ar
    11    21    22   ar
    12    22    23   ar
    13    23    24   ar
    14    24    25   ar
    15    25    26   ar
    16    26    27   ar
    17    27    28   ar
    18    28    29   ar
    19    11    12    1
    20    12    13   ar
    21    13    14   ar
    22    14    15   ar
    23    15    16    1
    24    15    17   ar
    25    17    18   ar
    26    18    19    1
    27    19     8    1
    28    29    20   ar
    29    18    12   ar
    30    29    24   ar
    31     1     5    1
    32     4     6    1
@<TRIPOS>MOLECULE
*****
 29 32 0 0 0
SMALL
GASTEIGER

@<TRIPOS>ATOM
      1 N          62.4075   88.9725   12.5049 N.am    1  UNL1       -0.2863
      2 C          62.9376   87.5770   12.3583 C.2     1  UNL1        0.3047
      3 O          64.2540   87.2061   12.9745 O.2     1  UNL1       -0.2525
      4 N          62.1514   86.5523   11.5955 N.am    1  UNL1       -0.2683
      5 H          61.5436   89.2159   12.1005 H       1  UNL1        0.1512
      6 H          61.2875   86.7957   11.1910 H       1  UNL1        0.1564
      7 C          64.5620   91.7575   16.6889 C.3     1  UNL1        0.0437
      8 C          63.9789   91.0040   15.5304 C.3     1  UNL1        0.1352
      9 C          63.3941   90.2232   16.6698 C.3     1  UNL1        0.0437
     10 C          63.1927   89.9793   14.7676 C.3     1  UNL1        0.0642
     11 C          63.1937   89.9972   13.2677 C.3     1  UNL1        0.1019
     12 C          63.9811   91.0397   12.5306 C.ar    1  UNL1        0.0298
     13 C          63.9821   91.0576   11.0307 C.ar    1  UNL1        0.0026
     14 C          64.7694   92.1001   10.2937 C.ar    1  UNL1        0.0296
     15 C          65.5556   93.1248   11.0565 C.ar    1  UNL1        0.1431
     16 F          66.3430   94.1673   10.3194 F       1  UNL1       -0.2041
     17 C          65.5546   93.1069   12.5564 C.ar    1  UNL1        0.0662
     18 C          64.7673   92.0644   13.2934 C.ar    1  UNL1        0.1379
     19 O          64.7662   92.0465   14.7934 O.3     1  UNL1       -0.4827
     20 C          62.6816   85.1568   11.4489 C.ar    1  UNL1        0.0516
     21 C          63.1385   84.6651   10.1074 C.ar    1  UNL1        0.0147
     22 C          63.6687   83.2696    9.9609 C.ar    1  UNL1        0.0013
     23 C          63.7419   82.3658   11.1557 C.ar    1  UNL1        0.0016
     24 C          63.2850   82.8574   12.4972 C.ar    1  UNL1        0.0204
     25 C          63.3582   81.9536   13.6920 C.ar    1  UNL1        0.0989
     26 N          62.9013   82.4452   15.0335 N.ar    1  UNL1       -0.2423
     27 C          62.3711   83.8408   15.1801 C.ar    1  UNL1        0.0989
     28 C          62.2979   84.7446   13.9852 C.ar    1  UNL1        0.0219
     29 C          62.7548   84.2529   12.6437 C.ar    1  UNL1        0.0166
@<TRIPOS>BOND
     1     7     8    1
     2     8     9    1
     3     8    10    1
     4    10    11    1
     5    11     1    1
     6     1     2   am
     7     2     3    2
     8     2     4   am
     9     4    20    1
    10    20    21   ar
    11    21    22   ar
    12    22    23   ar
    13    23    24   ar
    14    24    25   ar
    15    25    26   ar
    16    26    27   ar
    17    27    28   ar
    18    28    29   ar
    19    11    12    1
    20    12    13   ar
    21    13    14   ar
    22    14    15   ar
    23    15    16    1
    24    15    17   ar
    25    17    18   ar
    26    18    19    1
    27    19     8    1
    28    29    20   ar
    29    18    12   ar
    30    29    24   ar
    31     1     5    1
    32     4     6    1
@<TRIPOS>MOLECULE
*****
 29 32 0 0 0
SMALL
GASTEIGER

@<TRIPOS>ATOM
      1 N          61.9206   88.8196   12.1338 N.am    1  UNL1       -0.2863
      2 C          62.9812   89.8379   11.8368 C.2     1  UNL1        0.3047
      3 O          63.6964   89.8133   10.5185 O.2     1  UNL1       -0.2525
      4 N          63.3266   90.8808   12.8581 N.am    1  UNL1       -0.2683
      5 H          61.4512   88.8358   12.9990 H       1  UNL1        0.1512
      6 H          62.8572   90.8969   13.7234 H       1  UNL1        0.1564
      7 C          59.7448   86.4498    7.7118 C.3     1  UNL1        0.0437
      8 C          60.3490   87.0851    8.9289 C.3     1  UNL1        0.1352
      9 C          59.6039   88.2586    8.3652 C.3     1  UNL1        0.0437
     10 C          60.6945   88.1280    9.9502 C.3     1  UNL1        0.0642
     11 C          61.5752   87.7768   11.1125 C.3     1  UNL1        0.1019
     12 C          62.1105   86.3826   11.2535 C.ar    1  UNL1        0.0298
     13 C          62.9912   86.0314   12.4158 C.ar    1  UNL1        0.0026
     14 C          63.5264   84.6373   12.5568 C.ar    1  UNL1        0.0296
     15 C          63.1810   83.5944   11.5354 C.ar    1  UNL1        0.1431
     16 F          63.7163   82.2002   11.6765 F       1  UNL1       -0.2041
     17 C          62.3003   83.9456   10.3732 C.ar    1  UNL1        0.0662
     18 C          61.7650   85.3397   10.2322 C.ar    1  UNL1        0.1379
     19 O          60.8843   85.6910    9.0698 O.3     1  UNL1       -0.4827
     20 C          64.3873   91.8991   12.5611 C.ar    1  UNL1        0.0516
     21 C          64.5140   92.4689   11.1794 C.ar    1  UNL1        0.0147
     22 C          65.5746   93.4871   10.8824 C.ar    1  UNL1        0.0013
     23 C          66.5085   93.9356   11.9672 C.ar    1  UNL1        0.0016
     24 C          66.3818   93.3658   13.3489 C.ar    1  UNL1        0.0204
     25 C          67.3157   93.8142   14.4337 C.ar    1  UNL1        0.0989
     26 N          67.1890   93.2444   15.8154 N.ar    1  UNL1       -0.2423
     27 C          66.1284   92.2261   16.1124 C.ar    1  UNL1        0.0989
     28 C          65.1945   91.7776   15.0277 C.ar    1  UNL1        0.0219
     29 C          65.3212   92.3475   13.6459 C.ar    1  UNL1        0.0166
@<TRIPOS>BOND
     1     7     8    1
     2     8     9    1
     3     8    10    1
     4    10    11    1
     5    11     1    1
     6     1     2   am
     7     2     3    2
     8     2     4   am
     9     4    20    1
    10    20    21   ar
    11    21    22   ar
    12    22    23   ar
    13    23    24   ar
    14    24    25   ar
    15    25    26   ar
    16    26    27   ar
    17    27    28   ar
    18    28    29   ar
    19    11    12    1
    20    12    13   ar
    21    13    14   ar
    22    14    15   ar
    23    15    16    1
    24    15    17   ar
    25    17    18   ar
    26    18    19    1
    27    19     8    1
    28    29    20   ar
    29    18    12   ar
    30    29    24   ar
    31     1     5    1
    32     4     6    1
@<TRIPOS>MOLECULE
*****
 29 32 0 0 0
SMALL
GASTEIGER

@<TRIPOS>ATOM
      1 N          62.6059   89.6908   11.7167 N.am    1  UNL1       -0.2863
      2 C          63.5288   90.0088   12.8555 C.2     1  UNL1        0.3047
      3 O          64.1568   88.8983   13.6445 O.2     1  UNL1       -0.2525
      4 N          63.8237   91.4373   13.2055 N.am    1  UNL1       -0.2683
      5 H          62.1937   90.4196   11.1989 H       1  UNL1        0.1512
      6 H          63.4115   92.1661   12.6877 H       1  UNL1        0.1564
      7 C          62.6266   84.2253   11.8939 C.3     1  UNL1        0.0437
      8 C          62.6107   85.7238   11.8318 C.3     1  UNL1        0.1352
      9 C          63.5057   85.5219   13.0184 C.3     1  UNL1        0.0437
     10 C          62.9056   87.1523   12.1817 C.3     1  UNL1        0.0642
     11 C          62.3110   88.2623   11.3667 C.3     1  UNL1        0.1019
     12 C          61.4214   87.9438   10.2016 C.ar    1  UNL1        0.0298
     13 C          60.8268   89.0538    9.3866 C.ar    1  UNL1        0.0026
     14 C          59.9373   88.7353    8.2216 C.ar    1  UNL1        0.0296
     15 C          59.6424   87.3069    7.8716 C.ar    1  UNL1        0.1431
     16 F          58.7528   86.9884    6.7065 F       1  UNL1       -0.2041
     17 C          60.2370   86.1969    8.6866 C.ar    1  UNL1        0.0662
     18 C          61.1265   86.5154    9.8516 C.ar    1  UNL1        0.1379
     19 O          61.7211   85.4054   10.6668 O.3     1  UNL1       -0.4827
     20 C          64.7466   91.7552   14.3445 C.ar    1  UNL1        0.0516
     21 C          64.1953   91.9420   15.7269 C.ar    1  UNL1        0.0147
     22 C          65.1182   92.2599   16.8657 C.ar    1  UNL1        0.0013
     23 C          66.5925   92.3911   16.6222 C.ar    1  UNL1        0.0016
     24 C          67.1438   92.2044   15.2398 C.ar    1  UNL1        0.0204
     25 C          68.6181   92.3356   14.9962 C.ar    1  UNL1        0.0989
     26 N          69.1694   92.1489   13.6138 N.ar    1  UNL1       -0.2423
     27 C          68.2465   91.8309   12.4749 C.ar    1  UNL1        0.0989
     28 C          66.7722   91.6997   12.7184 C.ar    1  UNL1        0.0219
     29 C          66.2209   91.8865   14.1009 C.ar    1  UNL1        0.0166
@<TRIPOS>BOND
     1     7     8    1
     2     8     9    1
     3     8    10    1
     4    10    11    1
     5    11     1    1
     6     1     2   am
     7     2     3    2
     8     2     4   am
     9     4    20    1
    10    20    21   ar
    11    21    22   ar
    12    22    23   ar
    13    23    24   ar
    14    24    25   ar
    15    25    26   ar
    16    26    27   ar
    17    27    28   ar
    18    28    29   ar
    19    11    12    1
    20    12    13   ar
    21    13    14   ar
    22    14    15   ar
    23    15    16    1
    24    15    17   ar
    25    17    18   ar
    26    18    19    1
    27    19     8    1
    28    29    20   ar
    29    18    12   ar
    30    29    24   ar
    31     1     5    1
    32     4     6    1
@<TRIPOS>MOLECULE
*****
 29 32 0 0 0
SMALL
GASTEIGER

@<TRIPOS>ATOM
      1 N          63.2824   89.1610   12.5906 N.am    1  UNL1       -0.2863
      2 C          63.3525   87.7571   13.1139 C.2     1  UNL1        0.3047
      3 O          64.0529   87.4738   14.4098 O.2     1  UNL1       -0.2525
      4 N          62.7224   86.6363   12.3414 N.am    1  UNL1       -0.2683
      5 H          62.8227   89.3469   11.7401 H       1  UNL1        0.1512
      6 H          62.2627   86.8222   11.4909 H       1  UNL1        0.1564
      7 C          64.8473   92.2890   16.7942 C.3     1  UNL1        0.0437
      8 C          64.4258   91.4417   15.6305 C.3     1  UNL1        0.1352
      9 C          63.8250   90.6543   16.7571 C.3     1  UNL1        0.0437
     10 C          63.7956   90.3209   14.8580 C.3     1  UNL1        0.0642
     11 C          63.9126   90.2818   13.3631 C.3     1  UNL1        0.1019
     12 C          64.6598   91.3634   12.6406 C.ar    1  UNL1        0.0298
     13 C          64.7767   91.3242   11.1458 C.ar    1  UNL1        0.0026
     14 C          65.5239   92.4058   10.4234 C.ar    1  UNL1        0.0296
     15 C          66.1541   93.5266   11.1959 C.ar    1  UNL1        0.1431
     16 F          66.9013   94.6082   10.4735 F       1  UNL1       -0.2041
     17 C          66.0371   93.5657   12.6908 C.ar    1  UNL1        0.0662
     18 C          65.2899   92.4841   13.4132 C.ar    1  UNL1        0.1379
     19 O          65.1729   92.5233   14.9081 O.3     1  UNL1       -0.4827
     20 C          62.7926   85.2323   12.8648 C.ar    1  UNL1        0.0516
     21 C          62.4201   84.9432   14.2887 C.ar    1  UNL1        0.0147
     22 C          62.4903   83.5392   14.8120 C.ar    1  UNL1        0.0013
     23 C          62.9330   82.4243   13.9114 C.ar    1  UNL1        0.0016
     24 C          63.3055   82.7135   12.4874 C.ar    1  UNL1        0.0204
     25 C          63.7482   81.5986   11.5868 C.ar    1  UNL1        0.0989
     26 N          64.1207   81.8877   10.1629 N.ar    1  UNL1       -0.2423
     27 C          64.0505   83.2918    9.6395 C.ar    1  UNL1        0.0989
     28 C          63.6078   84.4066   10.5401 C.ar    1  UNL1        0.0219
     29 C          63.2353   84.1174   11.9641 C.ar    1  UNL1        0.0166
@<TRIPOS>BOND
     1     7     8    1
     2     8     9    1
     3     8    10    1
     4    10    11    1
     5    11     1    1
     6     1     2   am
     7     2     3    2
     8     2     4   am
     9     4    20    1
    10    20    21   ar
    11    21    22   ar
    12    22    23   ar
    13    23    24   ar
    14    24    25   ar
    15    25    26   ar
    16    26    27   ar
    17    27    28   ar
    18    28    29   ar
    19    11    12    1
    20    12    13   ar
    21    13    14   ar
    22    14    15   ar
    23    15    16    1
    24    15    17   ar
    25    17    18   ar
    26    18    19    1
    27    19     8    1
    28    29    20   ar
    29    18    12   ar
    30    29    24   ar
    31     1     5    1
    32     4     6    1
@<TRIPOS>MOLECULE
*****
 29 32 0 0 0
SMALL
GASTEIGER

@<TRIPOS>ATOM
      1 N          62.4025   87.7652   12.3458 N.am    1  UNL1       -0.2863
      2 C          63.2961   88.6154   13.1994 C.2     1  UNL1        0.3047
      3 O          64.5883   88.0586   13.7192 O.2     1  UNL1       -0.2525
      4 N          62.8976   90.0225   13.5331 N.am    1  UNL1       -0.2683
      5 H          61.5544   88.1307   12.0047 H       1  UNL1        0.1512
      6 H          62.0495   90.3880   13.1920 H       1  UNL1        0.1564
      7 C          64.1584   82.6208   12.9419 C.3     1  UNL1        0.0437
      8 C          63.6749   84.0292   12.7618 C.3     1  UNL1        0.1352
      9 C          63.9197   84.0252   14.2416 C.3     1  UNL1        0.0437
     10 C          63.2764   85.4363   13.0955 C.3     1  UNL1        0.0642
     11 C          62.8010   86.3582   12.0120 C.3     1  UNL1        0.1019
     12 C          62.7241   85.8731   10.5947 C.ar    1  UNL1        0.0298
     13 C          62.2488   86.7950    9.5112 C.ar    1  UNL1        0.0026
     14 C          62.1719   86.3099    8.0939 C.ar    1  UNL1        0.0296
     15 C          62.5704   84.9029    7.7601 C.ar    1  UNL1        0.1431
     16 F          62.4936   84.4178    6.3428 F       1  UNL1       -0.2041
     17 C          63.0458   83.9810    8.8436 C.ar    1  UNL1        0.0662
     18 C          63.1227   84.4661   10.2609 C.ar    1  UNL1        0.1379
     19 O          63.5981   83.5441   11.3445 O.3     1  UNL1       -0.4827
     20 C          63.7913   90.8727   14.3867 C.ar    1  UNL1        0.0516
     21 C          63.6447   90.8514   15.8794 C.ar    1  UNL1        0.0147
     22 C          64.5384   91.7016   16.7329 C.ar    1  UNL1        0.0013
     23 C          65.5786   92.5730   16.0937 C.ar    1  UNL1        0.0016
     24 C          65.7252   92.5942   14.6011 C.ar    1  UNL1        0.0204
     25 C          66.7655   93.4656   13.9619 C.ar    1  UNL1        0.0989
     26 N          66.9121   93.4869   12.4693 N.ar    1  UNL1       -0.2423
     27 C          66.0184   92.6367   11.6157 C.ar    1  UNL1        0.0989
     28 C          64.9781   91.7653   12.2549 C.ar    1  UNL1        0.0219
     29 C          64.8315   91.7441   13.7476 C.ar    1  UNL1        0.0166
@<TRIPOS>BOND
     1     7     8    1
     2     8     9    1
     3     8    10    1
     4    10    11    1
     5    11     1    1
     6     1     2   am
     7     2     3    2
     8     2     4   am
     9     4    20    1
    10    20    21   ar
    11    21    22   ar
    12    22    23   ar
    13    23    24   ar
    14    24    25   ar
    15    25    26   ar
    16    26    27   ar
    17    27    28   ar
    18    28    29   ar
    19    11    12    1
    20    12    13   ar
    21    13    14   ar
    22    14    15   ar
    23    15    16    1
    24    15    17   ar
    25    17    18   ar
    26    18    19    1
    27    19     8    1
    28    29    20   ar
    29    18    12   ar
    30    29    24   ar
    31     1     5    1
    32     4     6    1
@<TRIPOS>MOLECULE
*****
 29 32 0 0 0
SMALL
GASTEIGER

@<TRIPOS>ATOM
      1 N          61.2796   88.7297   12.0453 N.am    1  UNL1       -0.2863
      2 C          62.5595   89.3893   12.4657 C.2     1  UNL1        0.3047
      3 O          63.8631   88.9438   11.8722 O.2     1  UNL1       -0.2525
      4 N          62.5359   90.4945   13.4797 N.am    1  UNL1       -0.2683
      5 H          60.4241   89.0222   12.4349 H       1  UNL1        0.1512
      6 H          61.6803   90.7869   13.8692 H       1  UNL1        0.1564
      7 C          60.3280   85.9228    7.4497 C.3     1  UNL1        0.0437
      8 C          60.5982   86.6798    8.7162 C.3     1  UNL1        0.1352
      9 C          59.7521   87.6824    7.9890 C.3     1  UNL1        0.0437
     10 C          60.5746   87.7849    9.7301 C.3     1  UNL1        0.0642
     11 C          61.3032   87.6246   11.0314 C.3     1  UNL1        0.1019
     12 C          62.0555   86.3590   11.3188 C.ar    1  UNL1        0.0298
     13 C          62.7841   86.1987   12.6201 C.ar    1  UNL1        0.0026
     14 C          63.5363   84.9332   12.9074 C.ar    1  UNL1        0.0296
     15 C          63.5600   83.8280   11.8935 C.ar    1  UNL1        0.1431
     16 F          64.3122   82.5625   12.1809 F       1  UNL1       -0.2041
     17 C          62.8313   83.9884   10.5922 C.ar    1  UNL1        0.0662
     18 C          62.0791   85.2539   10.3049 C.ar    1  UNL1        0.1379
     19 O          61.3505   85.4143    9.0035 O.3     1  UNL1       -0.4827
     20 C          63.8159   91.1541   13.9000 C.ar    1  UNL1        0.0516
     21 C          64.2558   91.0929   15.3327 C.ar    1  UNL1        0.0147
     22 C          65.5357   91.7525   15.7530 C.ar    1  UNL1        0.0013
     23 C          66.3757   92.4733   14.7407 C.ar    1  UNL1        0.0016
     24 C          65.9357   92.5345   13.3080 C.ar    1  UNL1        0.0204
     25 C          66.7757   93.2554   12.2956 C.ar    1  UNL1        0.0989
     26 N          66.3357   93.3166   10.8629 N.ar    1  UNL1       -0.2423
     27 C          65.0557   92.6570   10.4425 C.ar    1  UNL1        0.0989
     28 C          64.2158   91.9362   11.4549 C.ar    1  UNL1        0.0219
     29 C          64.6558   91.8749   12.8877 C.ar    1  UNL1        0.0166
@<TRIPOS>BOND
     1     7     8    1
     2     8     9    1
     3     8    10    1
     4    10    11    1
     5    11     1    1
     6     1     2   am
     7     2     3    2
     8     2     4   am
     9     4    20    1
    10    20    21   ar
    11    21    22   ar
    12    22    23   ar
    13    23    24   ar
    14    24    25   ar
    15    25    26   ar
    16    26    27   ar
    17    27    28   ar
    18    28    29   ar
    19    11    12    1
    20    12    13   ar
    21    13    14   ar
    22    14    15   ar
    23    15    16    1
    24    15    17   ar
    25    17    18   ar
    26    18    19    1
    27    19     8    1
    28    29    20   ar
    29    18    12   ar
    30    29    24   ar
    31     1     5    1
    32     4     6    1
@<TRIPOS>MOLECULE
*****
 29 32 0 0 0
SMALL
GASTEIGER

@<TRIPOS>ATOM
      1 N          63.3467   91.4319   12.5988 N.am    1  UNL1       -0.2863
      2 C          62.8800   90.5127   11.5093 C.2     1  UNL1        0.3047
      3 O          63.6922   90.3603   10.2574 O.2     1  UNL1       -0.2525
      4 N          61.6011   89.7457   11.6716 N.am    1  UNL1       -0.2683
      5 H          62.8136   91.5319   13.4205 H       1  UNL1        0.1512
      6 H          61.0681   89.8457   12.4932 H       1  UNL1        0.1564
      7 C          67.2191   94.5983   10.3892 C.3     1  UNL1        0.0437
      8 C          66.1664   93.7280   11.0093 C.3     1  UNL1        0.1352
      9 C          65.5152   94.0256    9.6912 C.3     1  UNL1        0.0437
     10 C          64.8876   92.9611   11.1715 C.3     1  UNL1        0.0642
     11 C          64.6255   92.1989   12.4366 C.3     1  UNL1        0.1019
     12 C          65.6423   92.2036   13.5394 C.ar    1  UNL1        0.0298
     13 C          65.3803   91.4413   14.8044 C.ar    1  UNL1        0.0026
     14 C          66.3971   91.4461   15.9071 C.ar    1  UNL1        0.0296
     15 C          67.6759   92.2130   15.7448 C.ar    1  UNL1        0.1431
     16 F          68.6928   92.2177   16.8476 F       1  UNL1       -0.2041
     17 C          67.9380   92.9752   14.4798 C.ar    1  UNL1        0.0662
     18 C          66.9212   92.9705   13.3771 C.ar    1  UNL1        0.1379
     19 O          67.1832   93.7328   12.1120 O.3     1  UNL1       -0.4827
     20 C          61.1345   88.8264   10.5820 C.ar    1  UNL1        0.0516
     21 C          60.2318   89.3424    9.5008 C.ar    1  UNL1        0.0147
     22 C          59.7652   88.4231    8.4112 C.ar    1  UNL1        0.0013
     23 C          60.2012   86.9879    8.4029 C.ar    1  UNL1        0.0016
     24 C          61.1039   86.4720    9.4840 C.ar    1  UNL1        0.0204
     25 C          61.5399   85.0368    9.4757 C.ar    1  UNL1        0.0989
     26 N          62.4426   84.5208   10.5568 N.ar    1  UNL1       -0.2423
     27 C          62.9092   85.4401   11.6465 C.ar    1  UNL1        0.0989
     28 C          62.4732   86.8753   11.6548 C.ar    1  UNL1        0.0219
     29 C          61.5705   87.3912   10.5736 C.ar    1  UNL1        0.0166
@<TRIPOS>BOND
     1     7     8    1
     2     8     9    1
     3     8    10    1
     4    10    11    1
     5    11     1    1
     6     1     2   am
     7     2     3    2
     8     2     4   am
     9     4    20    1
    10    20    21   ar
    11    21    22   ar
    12    22    23   ar
    13    23    24   ar
    14    24    25   ar
    15    25    26   ar
    16    26    27   ar
    17    27    28   ar
    18    28    29   ar
    19    11    12    1
    20    12    13   ar
    21    13    14   ar
    22    14    15   ar
    23    15    16    1
    24    15    17   ar
    25    17    18   ar
    26    18    19    1
    27    19     8    1
    28    29    20   ar
    29    18    12   ar
    30    29    24   ar
    31     1     5    1
    32     4     6    1
@<TRIPOS>MOLECULE
*****
 29 32 0 0 0
SMALL
GASTEIGER

@<TRIPOS>ATOM
      1 N          64.2765   90.7382   13.0504 N.am    1  UNL1       -0.2863
      2 C          64.7788   91.7936   12.1103 C.2     1  UNL1        0.3047
      3 O          64.5031   91.6813   10.6401 O.2     1  UNL1       -0.2525
      4 N          65.5568   92.9614   12.6405 N.am    1  UNL1       -0.2683
      5 H          64.4574   90.8119   14.0153 H       1  UNL1        0.1512
      6 H          65.7378   93.0351   13.6054 H       1  UNL1        0.1564
      7 C          60.8351   87.7955    9.9842 C.3     1  UNL1        0.0437
      8 C          61.7828   88.5887   10.8342 C.3     1  UNL1        0.1352
      9 C          61.2941   89.6671    9.9132 C.3     1  UNL1        0.0437
     10 C          62.5608   89.7565   11.3643 C.3     1  UNL1        0.0642
     11 C          63.4984   89.5704   12.5202 C.3     1  UNL1        0.1019
     12 C          63.6581   88.2165   13.1461 C.ar    1  UNL1        0.0298
     13 C          64.5957   88.0305   14.3020 C.ar    1  UNL1        0.0026
     14 C          64.7553   86.6767   14.9278 C.ar    1  UNL1        0.0296
     15 C          63.9773   85.5089   14.3977 C.ar    1  UNL1        0.1431
     16 F          64.1369   84.1551   15.0236 F       1  UNL1       -0.2041
     17 C          63.0397   85.6950   13.2418 C.ar    1  UNL1        0.0662
     18 C          62.8801   87.0488   12.6160 C.ar    1  UNL1        0.1379
     19 O          61.9424   87.2349   11.4600 O.3     1  UNL1       -0.4827
     20 C          66.0592   94.0168   11.7004 C.ar    1  UNL1        0.0516
     21 C          65.6866   95.4535   11.9175 C.ar    1  UNL1        0.0147
     22 C          66.1889   96.5088   10.9774 C.ar    1  UNL1        0.0013
     23 C          67.0639   96.1276    9.8202 C.ar    1  UNL1        0.0016
     24 C          67.4364   94.6909    9.6031 C.ar    1  UNL1        0.0204
     25 C          68.3114   94.3097    8.4459 C.ar    1  UNL1        0.0989
     26 N          68.6839   92.8730    8.2287 N.ar    1  UNL1       -0.2423
     27 C          68.1816   91.8176    9.1688 C.ar    1  UNL1        0.0989
     28 C          67.3067   92.1988   10.3260 C.ar    1  UNL1        0.0219
     29 C          66.9341   93.6356   10.5431 C.ar    1  UNL1        0.0166
@<TRIPOS>BOND
     1     7     8    1
     2     8     9    1
     3     8    10    1
     4    10    11    1
     5    11     1    1
     6     1     2   am
     7     2     3    2
     8     2     4   am
     9     4    20    1
    10    20    21   ar
    11    21    22   ar
    12    22    23   ar
    13    23    24   ar
    14    24    25   ar
    15    25    26   ar
    16    26    27   ar
    17    27    28   ar
    18    28    29   ar
    19    11    12    1
    20    12    13   ar
    21    13    14   ar
    22    14    15   ar
    23    15    16    1
    24    15    17   ar
    25    17    18   ar
    26    18    19    1
    27    19     8    1
    28    29    20   ar
    29    18    12   ar
    30    29    24   ar
    31     1     5    1
    32     4     6    1
