@<TRIPOS>MOLECULE
*****
 71 79 0 0 0
SMALL
GASTEIGER

@<TRIPOS>ATOM
      1 C          61.1547   87.7597    9.7801 C.3     1  UNL1        0.1217
      2 N          64.3408   85.7289   15.1163 N.3     1  UNL1       -0.1862
      3 C          64.8215   87.0805   15.5544 C.3     1  UNL1        0.1775
      4 C          64.4727   88.2976   14.7501 C.2     1  UNL1        0.2452
      5 O          64.9534   89.6493   15.1884 O.2     1  UNL1       -0.2732
      6 N          63.6432   88.1631   13.5076 N.am    1  UNL1       -0.2541
      7 C          63.2944   89.3803   12.7033 C.3     1  UNL1        0.1577
      8 C          62.4649   89.2458   11.4608 C.2     1  UNL1        0.2445
      9 O          62.1162   90.4630   10.6565 O.2     1  UNL1       -0.2731
     10 N          61.9842   87.8942   11.0226 N.am    1  UNL1       -0.2705
     11 C          62.3330   86.6770   11.8269 C.3     1  UNL1        0.1359
     12 C          63.1625   86.8115   13.0695 C.3     1  UNL1        0.1908
     13 N          63.5113   85.5944   13.8738 N.am    1  UNL1       -0.1863
     14 C          63.0305   84.2427   13.4355 C.2     1  UNL1        0.3191
     15 O          62.2010   84.1083   12.1930 O.2     1  UNL1       -0.2512
     16 N          63.3793   83.0256   14.2398 N.am    1  UNL1       -0.2836
     17 H          63.9237   83.1139   15.0553 H       1  UNL1        0.1513
     18 C          64.6895   84.5117   15.9206 C.3     1  UNL1        0.1188
     19 C          62.4058   84.6405   17.1526 C.2     1  UNL1       -0.0034
     20 C          63.7815   84.0566   17.0243 C.2     1  UNL1       -0.0071
     21 C          63.7751   90.7319   13.1415 C.3     1  UNL1        0.0556
     22 C          64.8892   91.4086   12.3994 C.ar    1  UNL1       -0.0198
     23 C          66.2356   91.5602   13.0429 C.ar    1  UNL1       -0.0011
     24 C          67.3498   92.2369   12.3008 C.ar    1  UNL1        0.0363
     25 C          67.1175   92.7620   10.9151 C.ar    1  UNL1        0.1337
     26 O          68.2316   93.4387   10.1729 O.3     1  UNL1       -0.5055
     27 C          65.7711   92.6104   10.2714 C.ar    1  UNL1        0.0363
     28 C          64.6569   91.9337   11.0136 C.ar    1  UNL1       -0.0011
     29 H          69.0727   93.5334   10.5749 H       1  UNL1        0.2922
     30 C          62.8986   81.6740   13.8016 C.3     1  UNL1        0.1177
     31 C          63.0933   81.2329   12.3812 C.ar    1  UNL1       -0.0025
     32 C          63.7458   82.1533   11.3928 C.ar    1  UNL1       -0.0026
     33 C          63.9405   81.7122    9.9724 C.ar    1  UNL1       -0.0003
     34 C          63.4827   80.3507    9.5405 C.ar    1  UNL1       -0.0000
     35 C          62.8301   79.4302   10.5289 C.ar    1  UNL1       -0.0003
     36 C          62.6354   79.8713   11.9493 C.ar    1  UNL1       -0.0026
     37 C          60.9948   88.9295    8.8548 C.ar    1  UNL1        0.0135
     38 C          62.0382   90.0066    8.8204 C.ar    1  UNL1       -0.0012
     39 C          61.8783   91.1764    7.8952 C.ar    1  UNL1       -0.0002
     40 C          60.6751   91.2690    7.0043 C.ar    1  UNL1        0.0016
     41 C          59.6318   90.1918    7.0387 C.ar    1  UNL1        0.0214
     42 C          58.3488   90.0127    6.2824 C.ar    1  UNL1        0.0721
     43 C          57.7158   88.7322    6.7403 C.ar    1  UNL1        0.0805
     44 N          58.6075   88.1200    7.7795 N.ar    1  UNL1       -0.3241
     45 C          58.3587   86.8319    8.5067 C.3     1  UNL1        0.1305
     46 C          59.7916   89.0221    7.9639 C.ar    1  UNL1        0.0577
     47 C          57.7960   90.9496    5.2496 C.2     1  UNL1        0.2505
     48 O          56.3365   91.2959    5.2557 O.2     1  UNL1       -0.2699
     49 N          58.7026   91.5402    4.2107 N.am    1  UNL1       -0.2759
     50 C          58.1498   92.4770    3.1779 C.3     1  UNL1        0.0954
     51 C          59.0565   93.0676    2.1391 C.3     1  UNL1        0.0411
     52 C          60.5160   92.7213    2.1330 C.3     1  UNL1        0.0753
     53 C          61.0687   91.7844    3.1659 C.3     1  UNL1        0.0411
     54 C          60.1621   91.1938    4.2047 C.3     1  UNL1        0.0954
     55 N          61.4226   93.3119    1.0941 N.am    1  UNL1       -0.3024
     56 C          61.4749   92.7164   -0.2816 C.2     1  UNL1        0.2458
     57 O          60.6206   91.5303   -0.6185 O.2     1  UNL1       -0.2701
     58 H          61.9833   94.0903    1.3152 H       1  UNL1        0.1497
     59 C          62.3815   93.3070   -1.3204 C.ar    1  UNL1        0.0534
     60 C          63.7994   92.8315   -1.4363 C.ar    1  UNL1        0.0058
     61 C          64.7060   93.4220   -2.4752 C.ar    1  UNL1        0.0147
     62 C          64.1948   94.4882   -3.3982 C.ar    1  UNL1        0.0479
     63 C          62.7768   94.9637   -3.2823 C.ar    1  UNL1        0.0147
     64 C          61.8702   94.3731   -2.2434 C.ar    1  UNL1        0.0058
     65 N          65.1014   95.0788   -4.4371 N.pl3   1  UNL1       -0.3046
     66 C          65.1389   94.4959   -5.8187 C.3     1  UNL1        0.1081
     67 C          66.0455   95.0864   -6.8575 C.3     1  UNL1        0.0938
     68 N          66.9147   96.2599   -6.5147 N.3     1  UNL1       -0.2686
     69 C          67.8214   96.8506   -7.5535 C.3     1  UNL1        0.0897
     70 C          66.8773   96.8428   -5.1331 C.3     1  UNL1        0.0938
     71 C          65.9706   96.2522   -4.0942 C.3     1  UNL1        0.1081
@<TRIPOS>BOND
     1    19    20    2
     2    20    18    1
     3    18     2    1
     4     2     3    1
     5     3     4    1
     6     4     5    2
     7     4     6   am
     8     6     7    1
     9     7    21    1
    10    21    22    1
    11    22    23   ar
    12    23    24   ar
    13    24    25   ar
    14    25    26    1
    15    25    27   ar
    16    27    28   ar
    17     7     8    1
    18     8     9    2
    19     8    10   am
    20    10     1    1
    21     1    37    1
    22    37    38   ar
    23    38    39   ar
    24    39    40   ar
    25    40    41   ar
    26    41    42   ar
    27    42    47    1
    28    47    48    2
    29    47    49   am
    30    49    50    1
    31    50    51    1
    32    51    52    1
    33    52    55    1
    34    55    56   am
    35    56    57    2
    36    56    59    1
    37    59    60   ar
    38    60    61   ar
    39    61    62   ar
    40    62    65    1
    41    65    66    1
    42    66    67    1
    43    67    68    1
    44    68    69    1
    45    68    70    1
    46    70    71    1
    47    62    63   ar
    48    63    64   ar
    49    52    53    1
    50    53    54    1
    51    42    43   ar
    52    43    44   ar
    53    44    45    1
    54    44    46   ar
    55    10    11    1
    56    12    11    1
    57    12    13    1
    58    13    14   am
    59    14    15    2
    60    14    16   am
    61    16    30    1
    62    30    31    1
    63    31    32   ar
    64    32    33   ar
    65    33    34   ar
    66    34    35   ar
    67    35    36   ar
    68    13     2    1
    69    36    31   ar
    70    12     6    1
    71    28    22   ar
    72    46    37   ar
    73    46    41   ar
    74    54    49    1
    75    64    59   ar
    76    71    65    1
    77    26    29    1
    78    55    58    1
    79    16    17    1
