@<TRIPOS>MOLECULE
*****
 32 35 0 0 0
SMALL
GASTEIGER

@<TRIPOS>ATOM
      1 N          62.5912   87.7560    9.7561 N.am    1  UNL1       -0.2684
      2 C          62.8660   87.3467   11.1728 C.2     1  UNL1        0.3078
      3 O          62.6158   85.9328   11.6069 O.2     1  UNL1       -0.2522
      4 N          63.3909   88.3511   12.1553 N.am    1  UNL1       -0.2605
      5 C          63.6657   87.9418   13.5720 C.3     1  UNL1        0.1164
      6 C          64.1906   88.9463   14.5545 C.3     1  UNL1        0.1137
      7 N          64.4408   90.3602   14.1204 N.pl3   1  UNL1       -0.2901
      8 C          64.1661   90.7695   12.7037 C.3     1  UNL1        0.0941
      9 C          64.4163   92.1834   12.2696 C.3     1  UNL1        0.0233
     10 C          63.6411   89.7650   11.7212 C.3     1  UNL1        0.1147
     11 H          62.7554   88.6839    9.4711 H       1  UNL1        0.1564
     12 C          64.9658   91.3647   15.1029 C.ar    1  UNL1        0.1544
     13 N          64.0431   91.9775   16.1144 N.ar    1  UNL1       -0.1974
     14 C          64.5680   92.9819   17.0969 C.ar    1  UNL1        0.2154
     15 N          63.6453   93.5947   18.1085 N.pl3   1  UNL1       -0.3274
     16 N          66.0157   93.3737   17.0680 N.ar    1  UNL1       -0.2057
     17 C          66.9384   92.7609   16.0565 C.ar    1  UNL1        0.1353
     18 S          68.4022   92.9500   15.7889 S.2     1  UNL1       -0.0453
     19 C          68.7819   92.0624   14.6409 C.ar    1  UNL1        0.1360
     20 N          67.5528   91.3247   14.1990 N.ar    1  UNL1       -0.2319
     21 C          66.4134   91.7564   15.0740 C.ar    1  UNL1        0.1372
     22 H          62.6951   93.3376   18.1275 H       1  UNL1        0.1452
     23 H          63.9898   94.2540   18.7534 H       1  UNL1        0.1452
     24 C          61.0163   84.7425    6.8085 C.ar    1  UNL1        0.1385
     25 C          62.4608   84.7133    7.2116 C.ar    1  UNL1        0.0382
     26 C          62.9858   85.7177    8.1941 C.ar    1  UNL1        0.0175
     27 C          62.0662   86.7515    8.7736 C.ar    1  UNL1        0.0478
     28 C          60.6216   86.7807    8.3705 C.ar    1  UNL1       -0.0053
     29 C          59.7020   87.8144    8.9500 C.3     1  UNL1        0.0324
     30 C          60.0967   85.7762    7.3880 C.ar    1  UNL1        0.0339
     31 C          61.1941   83.5310    4.5171 C.3     1  UNL1        0.2525
     32 O          60.4913   83.7379    5.8260 O.3     1  UNL1       -0.4714
@<TRIPOS>BOND
     1    31    32    1
     2    32    24    1
     3    24    25   ar
     4    25    26   ar
     5    26    27   ar
     6    27     1    1
     7     1     2   am
     8     2     3    2
     9     2     4   am
    10     4     5    1
    11     5     6    1
    12     6     7    1
    13     7    12    1
    14    12    13   ar
    15    13    14   ar
    16    14    15    1
    17    14    16   ar
    18    16    17   ar
    19    17    18   ar
    20    18    19   ar
    21    19    20   ar
    22    20    21   ar
    23     7     8    1
    24     8     9    1
    25     8    10    1
    26    27    28   ar
    27    28    29    1
    28    28    30   ar
    29    30    24   ar
    30    10     4    1
    31    21    12   ar
    32    21    17   ar
    33     1    11    1
    34    15    22    1
    35    15    23    1
@<TRIPOS>MOLECULE
*****
 32 35 0 0 0
SMALL
GASTEIGER

@<TRIPOS>ATOM
      1 N          72.6782   75.3139   13.3831 N.am    1  UNL1       -0.2684
      2 C          71.9954   76.6315   13.6022 C.2     1  UNL1        0.3078
      3 O          71.2454   76.8847   14.8763 O.2     1  UNL1       -0.2522
      4 N          72.0628   77.6957   12.5474 N.am    1  UNL1       -0.2605
      5 C          71.3800   79.0133   12.7665 C.3     1  UNL1        0.1164
      6 C          71.4473   80.0774   11.7116 C.3     1  UNL1        0.1137
      7 N          72.1975   79.8242   10.4375 N.pl3   1  UNL1       -0.2901
      8 C          72.8802   78.5067   10.2183 C.3     1  UNL1        0.0941
      9 C          73.6303   78.2534    8.9443 C.3     1  UNL1        0.0233
     10 C          72.8128   77.4425   11.2733 C.3     1  UNL1        0.1147
     11 H          73.1705   75.1477   12.5469 H       1  UNL1        0.1564
     12 C          72.2648   80.8884    9.3826 C.ar    1  UNL1        0.1544
     13 N          72.6846   82.2813    9.7482 N.ar    1  UNL1       -0.1974
     14 C          72.7519   83.3455    8.6933 C.ar    1  UNL1        0.2154
     15 N          73.1718   84.7385    9.0590 N.pl3   1  UNL1       -0.3274
     16 N          72.3995   83.0170    7.2728 N.ar    1  UNL1       -0.2057
     17 C          71.9796   81.6241    6.9072 C.ar    1  UNL1        0.1353
     18 S          71.5764   81.0078    5.6005 S.2     1  UNL1       -0.0453
     19 C          71.2599   79.5626    5.8478 C.ar    1  UNL1        0.1360
     20 N          71.4675   79.2857    7.3074 N.ar    1  UNL1       -0.2319
     21 C          71.9123   80.5598    7.9621 C.ar    1  UNL1        0.1372
     22 H          73.4031   84.9542    9.9913 H       1  UNL1        0.1452
     23 H          73.2160   85.4370    8.3666 H       1  UNL1        0.1452
     24 C          72.4761   72.1212   16.5478 C.ar    1  UNL1        0.1385
     25 C          73.2469   73.3824   16.8030 C.ar    1  UNL1        0.0382
     26 C          73.3143   74.4467   15.7481 C.ar    1  UNL1        0.0175
     27 C          72.6108   74.2497   14.4380 C.ar    1  UNL1        0.0478
     28 C          71.8400   72.9884   14.1828 C.ar    1  UNL1       -0.0053
     29 C          71.1365   72.7914   12.8728 C.3     1  UNL1        0.0324
     30 C          71.7727   71.9242   15.2378 C.ar    1  UNL1        0.0339
     31 C          71.1053   70.3768   17.8998 C.3     1  UNL1        0.2525
     32 O          72.4088   71.0570   17.6028 O.3     1  UNL1       -0.4714
@<TRIPOS>BOND
     1    31    32    1
     2    32    24    1
     3    24    25   ar
     4    25    26   ar
     5    26    27   ar
     6    27     1    1
     7     1     2   am
     8     2     3    2
     9     2     4   am
    10     4     5    1
    11     5     6    1
    12     6     7    1
    13     7    12    1
    14    12    13   ar
    15    13    14   ar
    16    14    15    1
    17    14    16   ar
    18    16    17   ar
    19    17    18   ar
    20    18    19   ar
    21    19    20   ar
    22    20    21   ar
    23     7     8    1
    24     8     9    1
    25     8    10    1
    26    27    28   ar
    27    28    29    1
    28    28    30   ar
    29    30    24   ar
    30    10     4    1
    31    21    12   ar
    32    21    17   ar
    33     1    11    1
    34    15    22    1
    35    15    23    1
@<TRIPOS>MOLECULE
*****
 32 35 0 0 0
SMALL
GASTEIGER

@<TRIPOS>ATOM
      1 N          60.6800   92.3911    1.7702 N.am    1  UNL1       -0.2684
      2 C          60.4957   93.8385    1.4219 C.2     1  UNL1        0.3078
      3 O          59.9088   94.7832    2.4285 O.2     1  UNL1       -0.2522
      4 N          60.8983   94.3411    0.0673 N.am    1  UNL1       -0.2605
      5 C          60.7140   95.7885   -0.2810 C.3     1  UNL1        0.1164
      6 C          61.1166   96.2911   -1.6356 C.3     1  UNL1        0.1137
      7 N          61.7035   95.3464   -2.6422 N.pl3   1  UNL1       -0.2901
      8 C          61.8879   93.8991   -2.2940 C.3     1  UNL1        0.0941
      9 C          62.4748   92.9544   -3.3005 C.3     1  UNL1        0.0233
     10 C          61.4852   93.3965   -0.9392 C.3     1  UNL1        0.1147
     11 H          61.0653   91.7711    1.1096 H       1  UNL1        0.1564
     12 C          62.1061   95.8490   -3.9969 C.ar    1  UNL1        0.1544
     13 N          61.0676   96.0559   -5.0592 N.ar    1  UNL1       -0.1974
     14 C          61.4701   96.5586   -6.4139 C.ar    1  UNL1        0.2154
     15 N          60.4314   96.7654   -7.4762 N.pl3   1  UNL1       -0.3274
     16 N          62.9113   96.8544   -6.7063 N.ar    1  UNL1       -0.2057
     17 C          63.9499   96.6475   -5.6440 C.ar    1  UNL1        0.1353
     18 S          65.4359   96.8516   -5.6400 S.2     1  UNL1       -0.0453
     19 C          65.9518   96.4751   -4.2827 C.ar    1  UNL1        0.1360
     20 N          64.7846   96.0383   -3.4479 N.ar    1  UNL1       -0.2319
     21 C          63.5473   96.1448   -4.2893 C.ar    1  UNL1        0.1372
     22 H          59.4856   96.5713   -7.2843 H       1  UNL1        0.1452
     23 H          60.6957   97.0954   -8.3654 H       1  UNL1        0.1452
     24 C          59.4723   90.8833    5.8344 C.ar    1  UNL1        0.1385
     25 C          58.4524   91.5186    4.9365 C.ar    1  UNL1        0.0382
     26 C          58.8549   92.0212    3.5818 C.ar    1  UNL1        0.0175
     27 C          60.2775   91.8885    3.1249 C.ar    1  UNL1        0.0478
     28 C          61.2975   91.2532    4.0228 C.ar    1  UNL1       -0.0053
     29 C          62.7200   91.1205    3.5659 C.3     1  UNL1        0.0324
     30 C          60.8948   90.7506    5.3775 C.ar    1  UNL1        0.0339
     31 C          59.1901   88.9212    7.5139 C.3     1  UNL1        0.2525
     32 O          59.0696   90.3806    7.1891 O.3     1  UNL1       -0.4714
@<TRIPOS>BOND
     1    31    32    1
     2    32    24    1
     3    24    25   ar
     4    25    26   ar
     5    26    27   ar
     6    27     1    1
     7     1     2   am
     8     2     3    2
     9     2     4   am
    10     4     5    1
    11     5     6    1
    12     6     7    1
    13     7    12    1
    14    12    13   ar
    15    13    14   ar
    16    14    15    1
    17    14    16   ar
    18    16    17   ar
    19    17    18   ar
    20    18    19   ar
    21    19    20   ar
    22    20    21   ar
    23     7     8    1
    24     8     9    1
    25     8    10    1
    26    27    28   ar
    27    28    29    1
    28    28    30   ar
    29    30    24   ar
    30    10     4    1
    31    21    12   ar
    32    21    17   ar
    33     1    11    1
    34    15    22    1
    35    15    23    1
@<TRIPOS>MOLECULE
*****
 32 35 0 0 0
SMALL
GASTEIGER

@<TRIPOS>ATOM
      1 N          61.0922   89.2852    7.3560 N.am    1  UNL1       -0.2684
      2 C          59.7636   89.7378    6.8266 C.2     1  UNL1        0.3078
      3 O          58.5013   89.3502    7.5382 O.2     1  UNL1       -0.2522
      4 N          59.6974   90.5779    5.5859 N.am    1  UNL1       -0.2605
      5 C          58.3688   91.0305    5.0565 C.3     1  UNL1        0.1164
      6 C          58.3025   91.8706    3.8157 C.3     1  UNL1        0.1137
      7 N          59.5649   92.2583    3.1041 N.pl3   1  UNL1       -0.2901
      8 C          60.8935   91.8058    3.6334 C.3     1  UNL1        0.0941
      9 C          62.1558   92.1935    2.9218 C.3     1  UNL1        0.0233
     10 C          60.9597   90.9656    4.8743 C.3     1  UNL1        0.1147
     11 H          61.9207   89.5397    6.8890 H       1  UNL1        0.1564
     12 C          59.4986   93.0985    1.8633 C.ar    1  UNL1        0.1544
     13 N          59.1455   92.4682    0.5487 N.ar    1  UNL1       -0.1974
     14 C          59.0792   93.3083   -0.6921 C.ar    1  UNL1        0.2154
     15 N          58.7261   92.6780   -2.0067 N.pl3   1  UNL1       -0.3274
     16 N          59.3661   94.7788   -0.6185 N.ar    1  UNL1       -0.2057
     17 C          59.7192   95.4091    0.6961 C.ar    1  UNL1        0.1353
     18 S          60.0502   96.8223    1.0748 S.2     1  UNL1       -0.0453
     19 C          60.3210   96.8555    2.5498 C.ar    1  UNL1        0.1360
     20 N          60.1574   95.4629    3.0826 N.ar    1  UNL1       -0.2319
     21 C          59.7855   94.5690    1.9369 C.ar    1  UNL1        0.1372
     22 H          58.5378   91.7129   -2.0550 H       1  UNL1        0.1452
     23 H          58.6826   93.2294   -2.8211 H       1  UNL1        0.1452
     24 C          61.2909   86.7648   11.0785 C.ar    1  UNL1        0.1385
     25 C          60.8112   86.1639    9.7906 C.ar    1  UNL1        0.0382
     26 C          60.7449   87.0040    8.5498 C.ar    1  UNL1        0.0175
     27 C          61.1584   88.4451    8.5968 C.ar    1  UNL1        0.0478
     28 C          61.6383   89.0461    9.8848 C.ar    1  UNL1       -0.0053
     29 C          62.0518   90.4871    9.9318 C.3     1  UNL1        0.0324
     30 C          61.7045   88.2059   11.1256 C.ar    1  UNL1        0.0339
     31 C          62.5166   84.9980   12.5368 C.3     1  UNL1        0.2525
     32 O          61.3572   85.9246   12.3194 O.3     1  UNL1       -0.4714
@<TRIPOS>BOND
     1    31    32    1
     2    32    24    1
     3    24    25   ar
     4    25    26   ar
     5    26    27   ar
     6    27     1    1
     7     1     2   am
     8     2     3    2
     9     2     4   am
    10     4     5    1
    11     5     6    1
    12     6     7    1
    13     7    12    1
    14    12    13   ar
    15    13    14   ar
    16    14    15    1
    17    14    16   ar
    18    16    17   ar
    19    17    18   ar
    20    18    19   ar
    21    19    20   ar
    22    20    21   ar
    23     7     8    1
    24     8     9    1
    25     8    10    1
    26    27    28   ar
    27    28    29    1
    28    28    30   ar
    29    30    24   ar
    30    10     4    1
    31    21    12   ar
    32    21    17   ar
    33     1    11    1
    34    15    22    1
    35    15    23    1
@<TRIPOS>MOLECULE
*****
 32 35 0 0 0
SMALL
GASTEIGER

@<TRIPOS>ATOM
      1 N          63.3219   84.4453   12.7792 N.am    1  UNL1       -0.2684
      2 C          63.4902   84.8530   14.2129 C.2     1  UNL1        0.3078
      3 O          63.4400   83.8182   15.2977 O.2     1  UNL1       -0.2522
      4 N          63.7086   86.2953   14.5619 N.am    1  UNL1       -0.2605
      5 C          63.8769   86.7030   15.9956 C.3     1  UNL1        0.1164
      6 C          64.0953   88.1453   16.3445 C.3     1  UNL1        0.1137
      7 N          64.1455   89.1802   15.2597 N.pl3   1  UNL1       -0.2901
      8 C          63.9772   88.7726   13.8260 C.3     1  UNL1        0.0941
      9 C          64.0274   89.8074   12.7413 C.3     1  UNL1        0.0233
     10 C          63.7588   87.3301   13.4771 C.3     1  UNL1        0.1147
     11 H          63.3548   85.1245   12.0672 H       1  UNL1        0.1564
     12 C          64.3639   90.6226   15.6087 C.ar    1  UNL1        0.1544
     13 N          63.3044   91.3839   16.3488 N.ar    1  UNL1       -0.1974
     14 C          63.5228   92.8262   16.6978 C.ar    1  UNL1        0.2154
     15 N          62.4632   93.5876   17.4379 N.pl3   1  UNL1       -0.3274
     16 N          64.8008   93.5074   16.3067 N.ar    1  UNL1       -0.2057
     17 C          65.8603   92.7460   15.5666 C.ar    1  UNL1        0.1353
     18 S          67.2113   93.1477   15.0533 S.2     1  UNL1       -0.0453
     19 C          67.8278   91.9535   14.3871 C.ar    1  UNL1        0.1360
     20 N          66.8579   90.8138   14.4886 N.ar    1  UNL1       -0.2319
     21 C          65.6419   91.3036   15.2176 C.ar    1  UNL1        0.1372
     22 H          61.6244   93.1406   17.6946 H       1  UNL1        0.1452
     23 H          62.6066   94.5343   17.6669 H       1  UNL1        0.1452
     24 C          62.6666   80.1182   11.7323 C.ar    1  UNL1        0.1385
     25 C          62.2629   80.6327   13.0822 C.ar    1  UNL1        0.0382
     26 C          62.4813   82.0750   13.4312 C.ar    1  UNL1        0.0175
     27 C          63.1035   83.0030   12.4302 C.ar    1  UNL1        0.0478
     28 C          63.5072   82.4884   11.0803 C.ar    1  UNL1       -0.0053
     29 C          64.1294   83.4163   10.0793 C.3     1  UNL1        0.0324
     30 C          63.2888   81.0460   10.7313 C.ar    1  UNL1        0.0339
     31 C          62.9087   78.1468   10.0575 C.3     1  UNL1        0.2525
     32 O          62.4481   78.6758   11.3834 O.3     1  UNL1       -0.4714
@<TRIPOS>BOND
     1    31    32    1
     2    32    24    1
     3    24    25   ar
     4    25    26   ar
     5    26    27   ar
     6    27     1    1
     7     1     2   am
     8     2     3    2
     9     2     4   am
    10     4     5    1
    11     5     6    1
    12     6     7    1
    13     7    12    1
    14    12    13   ar
    15    13    14   ar
    16    14    15    1
    17    14    16   ar
    18    16    17   ar
    19    17    18   ar
    20    18    19   ar
    21    19    20   ar
    22    20    21   ar
    23     7     8    1
    24     8     9    1
    25     8    10    1
    26    27    28   ar
    27    28    29    1
    28    28    30   ar
    29    30    24   ar
    30    10     4    1
    31    21    12   ar
    32    21    17   ar
    33     1    11    1
    34    15    22    1
    35    15    23    1
@<TRIPOS>MOLECULE
*****
 32 35 0 0 0
SMALL
GASTEIGER

@<TRIPOS>ATOM
      1 N          60.7790   90.1859    6.8995 N.am    1  UNL1       -0.2684
      2 C          59.7645   90.8466    6.0138 C.2     1  UNL1        0.3078
      3 O          58.3368   90.9557    6.4605 O.2     1  UNL1       -0.2522
      4 N          60.1778   91.3982    4.6816 N.am    1  UNL1       -0.2605
      5 C          59.1634   92.0589    3.7960 C.3     1  UNL1        0.1164
      6 C          59.5767   92.6104    2.4638 C.3     1  UNL1        0.1137
      7 N          61.0045   92.5014    2.0171 N.pl3   1  UNL1       -0.2901
      8 C          62.0190   91.8407    2.9027 C.3     1  UNL1        0.0941
      9 C          63.4468   91.7316    2.4561 C.3     1  UNL1        0.0233
     10 C          61.6056   91.2891    4.2350 C.3     1  UNL1        0.1147
     11 H          61.7161   90.1143    6.6064 H       1  UNL1        0.1564
     12 C          61.4178   93.0530    0.6848 C.ar    1  UNL1        0.1544
     13 N          62.7922   93.6260    0.5040 N.ar    1  UNL1       -0.1974
     14 C          63.2055   94.1776   -0.8281 C.ar    1  UNL1        0.2154
     15 N          64.5800   94.7506   -1.0089 N.pl3   1  UNL1       -0.3274
     16 N          62.2444   94.1562   -1.9797 N.ar    1  UNL1       -0.2057
     17 C          60.8701   93.5831   -1.7989 C.ar    1  UNL1        0.1353
     18 S          59.7154   93.4272   -2.7436 S.2     1  UNL1       -0.0453
     19 C          58.5885   92.7792   -1.9952 C.ar    1  UNL1        0.1360
     20 N          59.0467   92.5347   -0.5879 N.ar    1  UNL1       -0.2319
     21 C          60.4568   93.0315   -0.4666 C.ar    1  UNL1        0.1372
     22 H          65.2108   94.7647   -0.2532 H       1  UNL1        0.1452
     23 H          64.8513   95.1127   -1.8833 H       1  UNL1        0.1452
     24 C          59.5390   88.5311   10.8962 C.ar    1  UNL1        0.1385
     25 C          60.1589   89.8942   10.8084 C.ar    1  UNL1        0.0382
     26 C          60.5722   90.4458    9.4763 C.ar    1  UNL1        0.0175
     27 C          60.3657   89.6343    8.2317 C.ar    1  UNL1        0.0478
     28 C          59.7458   88.2711    8.3195 C.ar    1  UNL1       -0.0053
     29 C          59.5393   87.4596    7.0750 C.3     1  UNL1        0.0324
     30 C          59.3325   87.7195    9.6517 C.ar    1  UNL1        0.0339
     31 C          58.2697   88.8001   13.1471 C.3     1  UNL1        0.2525
     32 O          59.1257   87.9795   12.2285 O.3     1  UNL1       -0.4714
@<TRIPOS>BOND
     1    31    32    1
     2    32    24    1
     3    24    25   ar
     4    25    26   ar
     5    26    27   ar
     6    27     1    1
     7     1     2   am
     8     2     3    2
     9     2     4   am
    10     4     5    1
    11     5     6    1
    12     6     7    1
    13     7    12    1
    14    12    13   ar
    15    13    14   ar
    16    14    15    1
    17    14    16   ar
    18    16    17   ar
    19    17    18   ar
    20    18    19   ar
    21    19    20   ar
    22    20    21   ar
    23     7     8    1
    24     8     9    1
    25     8    10    1
    26    27    28   ar
    27    28    29    1
    28    28    30   ar
    29    30    24   ar
    30    10     4    1
    31    21    12   ar
    32    21    17   ar
    33     1    11    1
    34    15    22    1
    35    15    23    1
@<TRIPOS>MOLECULE
*****
 32 35 0 0 0
SMALL
GASTEIGER

@<TRIPOS>ATOM
      1 N          62.8763   85.6249   13.0460 N.am    1  UNL1       -0.2684
      2 C          63.7388   86.3048   14.0678 C.2     1  UNL1        0.3078
      3 O          64.1629   85.5659   15.3024 O.2     1  UNL1       -0.2522
      4 N          64.1772   87.7233   13.8550 N.am    1  UNL1       -0.2605
      5 C          65.0397   88.4032   14.8767 C.3     1  UNL1        0.1164
      6 C          65.4781   89.8218   14.6639 C.3     1  UNL1        0.1137
      7 N          65.0539   90.5606   13.4292 N.pl3   1  UNL1       -0.2901
      8 C          64.1915   89.8808   12.4074 C.3     1  UNL1        0.0941
      9 C          63.7674   90.6197   11.1728 C.3     1  UNL1        0.0233
     10 C          63.7531   88.4622   12.6204 C.3     1  UNL1        0.1147
     11 H          62.5980   86.1098   12.2357 H       1  UNL1        0.1564
     12 C          65.4924   91.9793   13.2164 C.ar    1  UNL1        0.1544
     13 N          65.0518   92.7246   11.9915 N.ar    1  UNL1       -0.1974
     14 C          65.4902   94.1432   11.7786 C.ar    1  UNL1        0.2154
     15 N          65.0496   94.8886   10.5537 N.pl3   1  UNL1       -0.3274
     16 N          66.3692   94.8165   12.7907 N.ar    1  UNL1       -0.2057
     17 C          66.8097   94.0711   14.0155 C.ar    1  UNL1        0.1353
     18 S          67.6697   94.4700   15.1780 S.2     1  UNL1       -0.0453
     19 C          67.7627   93.2978   16.1093 C.ar    1  UNL1        0.1360
     20 N          66.9603   92.1745   15.5224 N.ar    1  UNL1       -0.2319
     21 C          66.3713   92.6525   14.2284 C.ar    1  UNL1        0.1372
     22 H          64.4728   94.4467    9.8895 H       1  UNL1        0.1452
     23 H          65.3374   95.8197   10.4140 H       1  UNL1        0.1452
     24 C          61.5612   81.3690   13.6846 C.ar    1  UNL1        0.1385
     25 C          61.4045   82.3757   14.7855 C.ar    1  UNL1        0.0382
     26 C          61.8428   83.7943   14.5728 C.ar    1  UNL1        0.0175
     27 C          62.4379   84.2064   13.2589 C.ar    1  UNL1        0.0478
     28 C          62.5947   83.1996   12.1579 C.ar    1  UNL1       -0.0053
     29 C          63.1898   83.6116   10.8441 C.3     1  UNL1        0.0324
     30 C          62.1563   81.7810   12.3708 C.ar    1  UNL1        0.0339
     31 C          59.7000   79.6526   14.2678 C.3     1  UNL1        0.2525
     32 O          61.1228   79.9504   13.8975 O.3     1  UNL1       -0.4714
@<TRIPOS>BOND
     1    31    32    1
     2    32    24    1
     3    24    25   ar
     4    25    26   ar
     5    26    27   ar
     6    27     1    1
     7     1     2   am
     8     2     3    2
     9     2     4   am
    10     4     5    1
    11     5     6    1
    12     6     7    1
    13     7    12    1
    14    12    13   ar
    15    13    14   ar
    16    14    15    1
    17    14    16   ar
    18    16    17   ar
    19    17    18   ar
    20    18    19   ar
    21    19    20   ar
    22    20    21   ar
    23     7     8    1
    24     8     9    1
    25     8    10    1
    26    27    28   ar
    27    28    29    1
    28    28    30   ar
    29    30    24   ar
    30    10     4    1
    31    21    12   ar
    32    21    17   ar
    33     1    11    1
    34    15    22    1
    35    15    23    1
@<TRIPOS>MOLECULE
*****
 32 35 0 0 0
SMALL
GASTEIGER

@<TRIPOS>ATOM
      1 N          65.0401   90.5368   13.5530 N.am    1  UNL1       -0.2684
      2 C          64.3964   91.0455   12.2972 C.2     1  UNL1        0.3078
      3 O          64.5936   92.4722   11.8784 O.2     1  UNL1       -0.2522
      4 N          63.5557   90.1275   11.4604 N.am    1  UNL1       -0.2605
      5 C          62.9121   90.6362   10.2046 C.3     1  UNL1        0.1164
      6 C          62.0713   89.7183    9.3677 C.3     1  UNL1        0.1137
      7 N          61.8742   88.2914    9.7866 N.pl3   1  UNL1       -0.2901
      8 C          62.5178   87.7826   11.0424 C.3     1  UNL1        0.0941
      9 C          62.3206   86.3559   11.4613 C.3     1  UNL1        0.0233
     10 C          63.3586   88.7007   11.8792 C.3     1  UNL1        0.1147
     11 H          64.9107   89.6003   13.8280 H       1  UNL1        0.1564
     12 C          61.0334   87.3734    8.9498 C.ar    1  UNL1        0.1544
     13 N          59.5490   87.5757    8.8748 N.ar    1  UNL1       -0.1974
     14 C          58.7083   86.6578    8.0380 C.ar    1  UNL1        0.2154
     15 N          57.2238   86.8601    7.9631 N.pl3   1  UNL1       -0.3274
     16 N          59.3519   85.5374    7.2760 N.ar    1  UNL1       -0.2057
     17 C          60.8363   85.3351    7.3509 C.ar    1  UNL1        0.1353
     18 S          61.7449   84.3251    6.7150 S.2     1  UNL1       -0.0453
     19 C          63.1473   84.6189    7.1589 C.ar    1  UNL1        0.1360
     20 N          63.1053   85.8105    8.0691 N.ar    1  UNL1       -0.2319
     21 C          61.6771   86.2531    8.1878 C.ar    1  UNL1        0.1372
     22 H          56.8014   87.5954    8.4632 H       1  UNL1        0.1452
     23 H          56.6720   86.2576    7.4138 H       1  UNL1        0.1452
     24 C          67.5623   93.2908   16.0637 C.ar    1  UNL1        0.1385
     25 C          68.0611   92.8267   14.7273 C.ar    1  UNL1        0.0382
     26 C          67.2204   91.9087   13.8904 C.ar    1  UNL1        0.0175
     27 C          65.8808   91.4547   14.3899 C.ar    1  UNL1        0.0478
     28 C          65.3820   91.9189   15.7263 C.ar    1  UNL1       -0.0053
     29 C          64.0424   91.4649   16.2258 C.3     1  UNL1        0.0324
     30 C          66.2227   92.8369   16.5631 C.ar    1  UNL1        0.0339
     31 C          69.5682   94.9269   16.2866 C.3     1  UNL1        0.2525
     32 O          68.4031   94.2089   16.9005 O.3     1  UNL1       -0.4714
@<TRIPOS>BOND
     1    31    32    1
     2    32    24    1
     3    24    25   ar
     4    25    26   ar
     5    26    27   ar
     6    27     1    1
     7     1     2   am
     8     2     3    2
     9     2     4   am
    10     4     5    1
    11     5     6    1
    12     6     7    1
    13     7    12    1
    14    12    13   ar
    15    13    14   ar
    16    14    15    1
    17    14    16   ar
    18    16    17   ar
    19    17    18   ar
    20    18    19   ar
    21    19    20   ar
    22    20    21   ar
    23     7     8    1
    24     8     9    1
    25     8    10    1
    26    27    28   ar
    27    28    29    1
    28    28    30   ar
    29    30    24   ar
    30    10     4    1
    31    21    12   ar
    32    21    17   ar
    33     1    11    1
    34    15    22    1
    35    15    23    1
@<TRIPOS>MOLECULE
*****
 32 35 0 0 0
SMALL
GASTEIGER

@<TRIPOS>ATOM
      1 N          60.7897   88.8451    6.9324 N.am    1  UNL1       -0.2684
      2 C          60.5007   88.9433    8.4011 C.2     1  UNL1        0.3078
      3 O          59.7039   90.0974    8.9331 O.2     1  UNL1       -0.2522
      4 N          61.0084   87.8874    9.3376 N.am    1  UNL1       -0.2605
      5 C          60.7193   87.9855   10.8063 C.3     1  UNL1        0.1164
      6 C          61.2270   86.9296   11.7428 C.3     1  UNL1        0.1137
      7 N          62.0238   85.7754   11.2107 N.pl3   1  UNL1       -0.2901
      8 C          62.3129   85.6772    9.7421 C.3     1  UNL1        0.0941
      9 C          63.1097   84.5231    9.2102 C.3     1  UNL1        0.0233
     10 C          61.8052   86.7332    8.8056 C.3     1  UNL1        0.1147
     11 H          61.3127   88.0876    6.5832 H       1  UNL1        0.1564
     12 C          62.5316   84.7195   12.1473 C.ar    1  UNL1        0.1544
     13 N          62.2713   83.2711   11.8567 N.ar    1  UNL1       -0.1974
     14 C          62.7790   82.2152   12.7932 C.ar    1  UNL1        0.2154
     15 N          62.5187   80.7668   12.5025 N.pl3   1  UNL1       -0.3274
     16 N          63.5470   82.6076   14.0205 N.ar    1  UNL1       -0.2057
     17 C          63.8072   84.0559   14.3112 C.ar    1  UNL1        0.1353
     18 S          64.5287   84.7403   15.4342 S.2     1  UNL1       -0.0453
     19 C          64.4669   86.2193   15.1916 C.ar    1  UNL1        0.1360
     20 N          63.7072   86.4489   13.9187 N.ar    1  UNL1       -0.2319
     21 C          63.2995   85.1119   13.3746 C.ar    1  UNL1        0.1372
     22 H          62.0147   80.5092   11.6969 H       1  UNL1        0.1452
     23 H          62.8519   80.0737   13.1172 H       1  UNL1        0.1452
     24 C          59.2665   92.0130    4.1227 C.ar    1  UNL1        0.1385
     25 C          60.7424   91.7952    4.2783 C.ar    1  UNL1        0.0382
     26 C          61.2502   90.7393    5.2148 C.ar    1  UNL1        0.0175
     27 C          60.2820   89.9010    5.9959 C.ar    1  UNL1        0.0478
     28 C          58.8060   90.1188    5.8403 C.ar    1  UNL1       -0.0053
     29 C          57.8378   89.2806    6.6213 C.3     1  UNL1        0.0324
     30 C          58.2983   91.1748    4.9037 C.ar    1  UNL1        0.0339
     31 C          59.4558   93.3111    1.8802 C.3     1  UNL1        0.2525
     32 O          58.7588   93.0689    3.1862 O.3     1  UNL1       -0.4714
@<TRIPOS>BOND
     1    31    32    1
     2    32    24    1
     3    24    25   ar
     4    25    26   ar
     5    26    27   ar
     6    27     1    1
     7     1     2   am
     8     2     3    2
     9     2     4   am
    10     4     5    1
    11     5     6    1
    12     6     7    1
    13     7    12    1
    14    12    13   ar
    15    13    14   ar
    16    14    15    1
    17    14    16   ar
    18    16    17   ar
    19    17    18   ar
    20    18    19   ar
    21    19    20   ar
    22    20    21   ar
    23     7     8    1
    24     8     9    1
    25     8    10    1
    26    27    28   ar
    27    28    29    1
    28    28    30   ar
    29    30    24   ar
    30    10     4    1
    31    21    12   ar
    32    21    17   ar
    33     1    11    1
    34    15    22    1
    35    15    23    1
