@<TRIPOS>MOLECULE
*****
 36 40 0 0 0
SMALL
GASTEIGER

@<TRIPOS>ATOM
      1 N          64.2258   90.1795   14.9365 N.3     1  UNL1       -0.2641
      2 C          65.1451   91.3461   14.7270 C.3     1  UNL1        0.0981
      3 C          65.9488   91.8832   15.8740 C.3     1  UNL1        0.0224
      4 C          66.8681   93.0498   15.6644 C.3     1  UNL1        0.0065
      5 C          66.9838   93.6793   14.3079 C.3     1  UNL1        0.0277
      6 C          66.1801   93.1423   13.1609 C.ar    1  UNL1       -0.0073
      7 C          66.2957   93.7719   11.8043 C.ar    1  UNL1       -0.0015
      8 C          65.4921   93.2348   10.6573 C.ar    1  UNL1        0.0203
      9 C          64.5728   92.0682   10.8668 C.ar    1  UNL1        0.0985
     10 N          64.4571   91.4387   12.2233 N.ar    1  UNL1       -0.2471
     11 C          65.2608   91.9757   13.3704 C.ar    1  UNL1        0.0695
     12 C          63.2920   90.1619   16.1102 C.3     1  UNL1        0.0989
     13 C          63.1582   87.8452   17.2785 C.2     1  UNL1       -0.0122
     14 C          62.5251   88.9155   16.4398 C.2     1  UNL1       -0.0120
     15 C          62.3914   86.5989   17.6082 C.3     1  UNL1        0.0954
     16 N          62.1422   85.5687   16.5466 N.3     1  UNL1       -0.2888
     17 H          61.4834   85.9804   15.8857 H       1  UNL1        0.1239
     18 C          63.2867   85.0316   15.7394 C.3     1  UNL1        0.1154
     19 C          63.0326   84.0308   14.6513 C.ar    1  UNL1        0.0750
     20 C          62.9814   84.4760   13.2199 C.ar    1  UNL1        0.0161
     21 C          62.7273   83.4753   12.1318 C.ar    1  UNL1        0.0028
     22 C          62.5244   82.0293   12.4753 C.ar    1  UNL1        0.0207
     23 C          62.5756   81.5841   13.9068 C.ar    1  UNL1        0.0985
     24 N          62.8297   82.5848   14.9948 N.ar    1  UNL1       -0.2468
     25 C          64.2404   89.0306   13.9723 C.3     1  UNL1        0.0888
     26 C          63.1508   88.8953   12.9502 C.3     1  UNL1        0.0748
     27 C          63.1463   87.7275   12.0089 C.3     1  UNL1        0.0432
     28 C          62.0567   87.5923   10.9867 C.ar    1  UNL1       -0.0234
     29 C          62.0522   86.4244   10.0455 C.ar    1  UNL1       -0.0045
     30 C          60.9627   86.2893    9.0234 C.ar    1  UNL1       -0.0003
     31 C          59.8778   87.3219    8.9426 C.ar    1  UNL1       -0.0003
     32 C          59.8823   88.4898    9.8839 C.ar    1  UNL1       -0.0032
     33 C          60.9718   88.6250   10.9059 C.ar    1  UNL1       -0.0103
     34 C          60.9764   89.7929   11.8473 C.3     1  UNL1        0.0953
     35 N          62.0659   89.9280   12.8694 N.3     1  UNL1       -0.2934
     36 H          61.6119   89.9502   13.7825 H       1  UNL1        0.1236
@<TRIPOS>BOND
     1    13    14    2
     2    14    12    1
     3    12     1    1
     4     1    25    1
     5    26    25    1
     6    26    27    1
     7    27    28    1
     8    28    29   ar
     9    29    30   ar
    10    30    31   ar
    11    31    32   ar
    12    32    33   ar
    13    33    34    1
    14    34    35    1
    15     2     1    1
    16     2     3    1
    17     3     4    1
    18     4     5    1
    19     5     6    1
    20     6     7   ar
    21     7     8   ar
    22     8     9   ar
    23     9    10   ar
    24    10    11   ar
    25    13    15    1
    26    15    16    1
    27    16    18    1
    28    18    19    1
    29    19    20   ar
    30    20    21   ar
    31    21    22   ar
    32    22    23   ar
    33    23    24   ar
    34    35    26    1
    35    11     2    1
    36    24    19   ar
    37    33    28   ar
    38    11     6   ar
    39    35    36    1
    40    16    17    1
@<TRIPOS>MOLECULE
*****
 36 40 0 0 0
SMALL
GASTEIGER

@<TRIPOS>ATOM
      1 N          63.0250   90.6734   12.5963 N.3     1  UNL1       -0.2641
      2 C          64.2456   91.4832   12.2735 C.3     1  UNL1        0.0981
      3 C          64.5907   91.7827   10.8448 C.3     1  UNL1        0.0224
      4 C          65.8113   92.5926   10.5220 C.3     1  UNL1        0.0065
      5 C          66.6868   93.1030   11.6279 C.3     1  UNL1        0.0277
      6 C          66.3416   92.8036   13.0565 C.ar    1  UNL1       -0.0073
      7 C          67.2171   93.3140   14.1625 C.ar    1  UNL1       -0.0015
      8 C          66.8720   93.0146   15.5912 C.ar    1  UNL1        0.0203
      9 C          65.6514   92.2047   15.9140 C.ar    1  UNL1        0.0985
     10 N          64.7759   91.6943   14.8081 N.ar    1  UNL1       -0.2471
     11 C          65.1210   91.9937   13.3794 C.ar    1  UNL1        0.0695
     12 C          63.0491   89.7042   13.7409 C.3     1  UNL1        0.0989
     13 C          64.1916   87.6675   14.8795 C.2     1  UNL1       -0.0122
     14 C          63.8588   88.4454   13.6410 C.2     1  UNL1       -0.0120
     15 C          65.0013   86.4088   14.7795 C.3     1  UNL1        0.0954
     16 N          64.6346   85.2132   15.6079 N.3     1  UNL1       -0.2888
     17 H          64.6340   85.5184   16.5812 H       1  UNL1        0.1239
     18 C          63.3304   84.5101   15.3739 C.3     1  UNL1        0.1154
     19 C          63.1813   83.5735   14.2117 C.ar    1  UNL1        0.0750
     20 C          62.9663   84.1195   12.8313 C.ar    1  UNL1        0.0161
     21 C          62.8172   83.1830   11.6691 C.ar    1  UNL1        0.0028
     22 C          62.8830   81.7004   11.8874 C.ar    1  UNL1        0.0207
     23 C          63.0980   81.1544   13.2679 C.ar    1  UNL1        0.0985
     24 N          63.2471   82.0910   14.4300 N.ar    1  UNL1       -0.2468
     25 C          61.7803   90.8326   11.7745 C.3     1  UNL1        0.0888
     26 C          61.4204   89.7977   10.7501 C.3     1  UNL1        0.0748
     27 C          62.2923   88.5913   10.5643 C.3     1  UNL1        0.0432
     28 C          61.9324   87.5564    9.5398 C.ar    1  UNL1       -0.0234
     29 C          62.8042   86.3501    9.3540 C.ar    1  UNL1       -0.0045
     30 C          62.4443   85.3152    8.3296 C.ar    1  UNL1       -0.0003
     31 C          61.2125   85.4867    7.4910 C.ar    1  UNL1       -0.0003
     32 C          60.3407   86.6930    7.6768 C.ar    1  UNL1       -0.0032
     33 C          60.7006   87.7279    8.7012 C.ar    1  UNL1       -0.0103
     34 C          59.8287   88.9343    8.8870 C.3     1  UNL1        0.0953
     35 N          60.1886   89.9692    9.9114 N.3     1  UNL1       -0.2934
     36 H          59.4003   90.0324   10.5556 H       1  UNL1        0.1236
@<TRIPOS>BOND
     1    13    14    2
     2    14    12    1
     3    12     1    1
     4     1    25    1
     5    26    25    1
     6    26    27    1
     7    27    28    1
     8    28    29   ar
     9    29    30   ar
    10    30    31   ar
    11    31    32   ar
    12    32    33   ar
    13    33    34    1
    14    34    35    1
    15     2     1    1
    16     2     3    1
    17     3     4    1
    18     4     5    1
    19     5     6    1
    20     6     7   ar
    21     7     8   ar
    22     8     9   ar
    23     9    10   ar
    24    10    11   ar
    25    13    15    1
    26    15    16    1
    27    16    18    1
    28    18    19    1
    29    19    20   ar
    30    20    21   ar
    31    21    22   ar
    32    22    23   ar
    33    23    24   ar
    34    35    26    1
    35    11     2    1
    36    24    19   ar
    37    33    28   ar
    38    11     6   ar
    39    35    36    1
    40    16    17    1
@<TRIPOS>MOLECULE
*****
 36 40 0 0 0
SMALL
GASTEIGER

@<TRIPOS>ATOM
      1 N          63.5019   88.6867   14.1413 N.3     1  UNL1       -0.2641
      2 C          63.3537   89.4373   12.8511 C.3     1  UNL1        0.0981
      3 C          64.0788   90.7350   12.6509 C.3     1  UNL1        0.0224
      4 C          63.9306   91.4856   11.3607 C.3     1  UNL1        0.0065
      5 C          63.0575   90.9384   10.2707 C.3     1  UNL1        0.0277
      6 C          62.3325   89.6407   10.4709 C.ar    1  UNL1       -0.0073
      7 C          61.4593   89.0934    9.3808 C.ar    1  UNL1       -0.0015
      8 C          60.7343   87.7957    9.5810 C.ar    1  UNL1        0.0203
      9 C          60.8824   87.0451   10.8713 C.ar    1  UNL1        0.0985
     10 N          61.7555   87.5923   11.9613 N.ar    1  UNL1       -0.2471
     11 C          62.4806   88.8901   11.7611 C.ar    1  UNL1        0.0695
     12 C          62.7580   89.1400   15.3624 C.3     1  UNL1        0.0989
     13 C          64.1559   91.2553   15.9294 C.2     1  UNL1       -0.0122
     14 C          63.4381   90.0152   16.3732 C.2     1  UNL1       -0.0120
     15 C          64.8360   92.1305   16.9401 C.3     1  UNL1        0.0954
     16 N          65.9344   93.0576   16.5113 N.3     1  UNL1       -0.2888
     17 H          66.3842   93.3948   17.3625 H       1  UNL1        0.1239
     18 C          67.0271   92.5605   15.6120 C.3     1  UNL1        0.1154
     19 C          66.9696   92.8364   14.1386 C.ar    1  UNL1        0.0750
     20 C          67.6090   91.8843   13.1718 C.ar    1  UNL1        0.0161
     21 C          67.5514   92.1602   11.6986 C.ar    1  UNL1        0.0028
     22 C          66.8544   93.3881   11.1921 C.ar    1  UNL1        0.0207
     23 C          66.2151   94.3402   12.1589 C.ar    1  UNL1        0.0985
     24 N          66.2726   94.0643   13.6322 N.ar    1  UNL1       -0.2468
     25 C          64.3939   87.4827   14.2105 C.3     1  UNL1        0.0888
     26 C          63.7955   86.1088   14.2776 C.3     1  UNL1        0.0748
     27 C          63.8265   85.2176   13.0715 C.3     1  UNL1        0.0432
     28 C          63.2282   83.8437   13.1386 C.ar    1  UNL1       -0.0234
     29 C          63.2592   82.9524   11.9325 C.ar    1  UNL1       -0.0045
     30 C          62.6608   81.5786   11.9997 C.ar    1  UNL1       -0.0003
     31 C          62.0316   81.0960   13.2729 C.ar    1  UNL1       -0.0003
     32 C          62.0006   81.9872   14.4790 C.ar    1  UNL1       -0.0032
     33 C          62.5989   83.3611   14.4118 C.ar    1  UNL1       -0.0103
     34 C          62.5679   84.2524   15.6180 C.3     1  UNL1        0.0953
     35 N          63.1662   85.6262   15.5508 N.3     1  UNL1       -0.2934
     36 H          63.8879   85.6686   16.2704 H       1  UNL1        0.1236
@<TRIPOS>BOND
     1    13    14    2
     2    14    12    1
     3    12     1    1
     4     1    25    1
     5    26    25    1
     6    26    27    1
     7    27    28    1
     8    28    29   ar
     9    29    30   ar
    10    30    31   ar
    11    31    32   ar
    12    32    33   ar
    13    33    34    1
    14    34    35    1
    15     2     1    1
    16     2     3    1
    17     3     4    1
    18     4     5    1
    19     5     6    1
    20     6     7   ar
    21     7     8   ar
    22     8     9   ar
    23     9    10   ar
    24    10    11   ar
    25    13    15    1
    26    15    16    1
    27    16    18    1
    28    18    19    1
    29    19    20   ar
    30    20    21   ar
    31    21    22   ar
    32    22    23   ar
    33    23    24   ar
    34    35    26    1
    35    11     2    1
    36    24    19   ar
    37    33    28   ar
    38    11     6   ar
    39    35    36    1
    40    16    17    1
@<TRIPOS>MOLECULE
*****
 36 40 0 0 0
SMALL
GASTEIGER

@<TRIPOS>ATOM
      1 N          62.0048   87.6763   11.0804 N.3     1  UNL1       -0.2641
      2 C          62.6390   89.0321   11.1785 C.3     1  UNL1        0.0981
      3 C          62.5248   89.9979   10.0366 C.3     1  UNL1        0.0224
      4 C          63.1590   91.3537   10.1348 C.3     1  UNL1        0.0065
      5 C          63.9073   91.7437   11.3749 C.3     1  UNL1        0.0277
      6 C          64.0214   90.7778   12.5168 C.ar    1  UNL1       -0.0073
      7 C          64.7698   91.1677   13.7570 C.ar    1  UNL1       -0.0015
      8 C          64.8839   90.2019   14.8990 C.ar    1  UNL1        0.0203
      9 C          64.2497   88.8461   14.8008 C.ar    1  UNL1        0.0985
     10 N          63.5014   88.4561   13.5607 N.ar    1  UNL1       -0.2471
     11 C          63.3873   89.4220   12.4187 C.ar    1  UNL1        0.0695
     12 C          60.5226   87.5271   11.2558 C.3     1  UNL1        0.0989
     13 C          59.9459   86.7189    8.8549 C.2     1  UNL1       -0.0122
     14 C          59.6193   87.5523   10.0585 C.2     1  UNL1       -0.0120
     15 C          59.0426   86.7442    7.6577 C.3     1  UNL1        0.0954
     16 N          58.5668   88.0549    7.1046 N.3     1  UNL1       -0.2888
     17 H          57.7861   88.3548    7.6885 H       1  UNL1        0.1239
     18 C          59.5105   89.2172    7.0131 C.3     1  UNL1        0.1154
     19 C          59.3062   90.2683    5.9627 C.ar    1  UNL1        0.0750
     20 C          60.4847   90.8283    5.2227 C.ar    1  UNL1        0.0161
     21 C          60.2803   91.8794    4.1724 C.ar    1  UNL1        0.0028
     22 C          58.8974   92.3705    3.8619 C.ar    1  UNL1        0.0207
     23 C          57.7189   91.8106    4.6018 C.ar    1  UNL1        0.0985
     24 N          57.9233   90.7595    5.6522 N.ar    1  UNL1       -0.2468
     25 C          62.8528   86.4696   10.8067 C.3     1  UNL1        0.0888
     26 C          62.7558   85.2669   11.6979 C.3     1  UNL1        0.0748
     27 C          62.8282   83.8893   11.1090 C.3     1  UNL1        0.0432
     28 C          62.7312   82.6866   12.0002 C.ar    1  UNL1       -0.0234
     29 C          62.8036   81.3090   11.4114 C.ar    1  UNL1       -0.0045
     30 C          62.7066   80.1064   12.3025 C.ar    1  UNL1       -0.0003
     31 C          62.5371   80.2814   13.7826 C.ar    1  UNL1       -0.0003
     32 C          62.4646   81.6590   14.3715 C.ar    1  UNL1       -0.0032
     33 C          62.5616   82.8616   13.4803 C.ar    1  UNL1       -0.0103
     34 C          62.4892   84.2394   14.0692 C.3     1  UNL1        0.0953
     35 N          62.5862   85.4420   13.1780 N.3     1  UNL1       -0.2934
     36 H          63.3852   85.9860   13.5036 H       1  UNL1        0.1236
@<TRIPOS>BOND
     1    13    14    2
     2    14    12    1
     3    12     1    1
     4     1    25    1
     5    26    25    1
     6    26    27    1
     7    27    28    1
     8    28    29   ar
     9    29    30   ar
    10    30    31   ar
    11    31    32   ar
    12    32    33   ar
    13    33    34    1
    14    34    35    1
    15     2     1    1
    16     2     3    1
    17     3     4    1
    18     4     5    1
    19     5     6    1
    20     6     7   ar
    21     7     8   ar
    22     8     9   ar
    23     9    10   ar
    24    10    11   ar
    25    13    15    1
    26    15    16    1
    27    16    18    1
    28    18    19    1
    29    19    20   ar
    30    20    21   ar
    31    21    22   ar
    32    22    23   ar
    33    23    24   ar
    34    35    26    1
    35    11     2    1
    36    24    19   ar
    37    33    28   ar
    38    11     6   ar
    39    35    36    1
    40    16    17    1
@<TRIPOS>MOLECULE
*****
 36 40 0 0 0
SMALL
GASTEIGER

@<TRIPOS>ATOM
      1 N          62.2054   89.4106   11.6096 N.3     1  UNL1       -0.2641
      2 C          63.2484   90.4030   12.0305 C.3     1  UNL1        0.0981
      3 C          63.9849   91.2014   10.9961 C.3     1  UNL1        0.0224
      4 C          65.0280   92.1937   11.4171 C.3     1  UNL1        0.0065
      5 C          65.3345   92.3878   12.8725 C.3     1  UNL1        0.0277
      6 C          64.5980   91.5894   13.9070 C.ar    1  UNL1       -0.0073
      7 C          64.9045   91.7835   15.3625 C.ar    1  UNL1       -0.0015
      8 C          64.1679   90.9851   16.3969 C.ar    1  UNL1        0.0203
      9 C          63.1249   89.9927   15.9760 C.ar    1  UNL1        0.0985
     10 N          62.8184   89.7987   14.5205 N.ar    1  UNL1       -0.2471
     11 C          63.5549   90.5971   13.4860 C.ar    1  UNL1        0.0695
     12 C          60.7510   89.7646   11.7061 C.3     1  UNL1        0.0989
     13 C          60.4390   89.2453    9.1796 C.2     1  UNL1       -0.0122
     14 C          59.9012   89.7887   10.4702 C.2     1  UNL1       -0.0120
     15 C          59.5893   89.2694    7.9438 C.3     1  UNL1        0.0954
     16 N          58.7998   88.0553    7.5526 N.3     1  UNL1       -0.2888
     17 H          58.9026   87.9499    6.5433 H       1  UNL1        0.1239
     18 C          59.1216   86.7231    8.1621 C.3     1  UNL1        0.1154
     19 C          60.3641   85.9904    7.7506 C.ar    1  UNL1        0.0750
     20 C          61.6216   86.1356    8.5552 C.ar    1  UNL1        0.0161
     21 C          62.8641   85.4029    8.1437 C.ar    1  UNL1        0.0028
     22 C          62.8490   84.5251    6.9275 C.ar    1  UNL1        0.0207
     23 C          61.5915   84.3799    6.1228 C.ar    1  UNL1        0.0985
     24 N          60.3491   85.1126    6.5344 N.ar    1  UNL1       -0.2468
     25 C          62.6167   88.0642   11.0920 C.3     1  UNL1        0.0888
     26 C          62.9486   86.9608   12.0525 C.3     1  UNL1        0.0748
     27 C          62.5887   85.5432   11.7197 C.3     1  UNL1        0.0432
     28 C          62.9205   84.4398   12.6802 C.ar    1  UNL1       -0.0234
     29 C          62.5606   83.0222   12.3474 C.ar    1  UNL1       -0.0045
     30 C          62.8925   81.9190   13.3079 C.ar    1  UNL1       -0.0003
     31 C          63.5843   82.2333   14.6012 C.ar    1  UNL1       -0.0003
     32 C          63.9442   83.6509   14.9340 C.ar    1  UNL1       -0.0032
     33 C          63.6123   84.7542   13.9735 C.ar    1  UNL1       -0.0103
     34 C          63.9723   86.1719   14.3063 C.3     1  UNL1        0.0953
     35 N          63.6404   87.2751   13.3458 N.3     1  UNL1       -0.2934
     36 H          64.5206   87.7312   13.1057 H       1  UNL1        0.1236
@<TRIPOS>BOND
     1    13    14    2
     2    14    12    1
     3    12     1    1
     4     1    25    1
     5    26    25    1
     6    26    27    1
     7    27    28    1
     8    28    29   ar
     9    29    30   ar
    10    30    31   ar
    11    31    32   ar
    12    32    33   ar
    13    33    34    1
    14    34    35    1
    15     2     1    1
    16     2     3    1
    17     3     4    1
    18     4     5    1
    19     5     6    1
    20     6     7   ar
    21     7     8   ar
    22     8     9   ar
    23     9    10   ar
    24    10    11   ar
    25    13    15    1
    26    15    16    1
    27    16    18    1
    28    18    19    1
    29    19    20   ar
    30    20    21   ar
    31    21    22   ar
    32    22    23   ar
    33    23    24   ar
    34    35    26    1
    35    11     2    1
    36    24    19   ar
    37    33    28   ar
    38    11     6   ar
    39    35    36    1
    40    16    17    1
@<TRIPOS>MOLECULE
*****
 36 40 0 0 0
SMALL
GASTEIGER

@<TRIPOS>ATOM
      1 N          61.0274   87.5217   10.2962 N.3     1  UNL1       -0.2641
      2 C          61.8912   86.3525    9.9265 C.3     1  UNL1        0.0981
      3 C          62.2430   86.1044    8.4897 C.3     1  UNL1        0.0224
      4 C          63.1068   84.9352    8.1201 C.3     1  UNL1        0.0065
      5 C          63.6189   84.0140    9.1873 C.3     1  UNL1        0.0277
      6 C          63.2672   84.2620   10.6242 C.ar    1  UNL1       -0.0073
      7 C          63.7793   83.3408   11.6916 C.ar    1  UNL1       -0.0015
      8 C          63.4275   83.5889   13.1285 C.ar    1  UNL1        0.0203
      9 C          62.5637   84.7582   13.4981 C.ar    1  UNL1        0.0985
     10 N          62.0516   85.6793   12.4308 N.ar    1  UNL1       -0.2471
     11 C          62.4033   85.4313   10.9938 C.ar    1  UNL1        0.0695
     12 C          59.8783   87.9134    9.4152 C.3     1  UNL1        0.0989
     13 C          59.0523   88.9041    7.1598 C.2     1  UNL1       -0.0122
     14 C          60.1172   88.7709    8.2077 C.2     1  UNL1       -0.0120
     15 C          59.2913   89.7615    5.9525 C.3     1  UNL1        0.0954
     16 N          58.9808   91.2282    6.0008 N.3     1  UNL1       -0.2888
     17 H          59.7654   91.6800    6.4706 H       1  UNL1        0.1239
     18 C          58.7426   91.9868    4.7289 C.3     1  UNL1        0.1154
     19 C          59.8878   92.2821    3.8061 C.ar    1  UNL1        0.0750
     20 C          61.2357   91.6776    4.0662 C.ar    1  UNL1        0.0161
     21 C          62.3808   91.9730    3.1435 C.ar    1  UNL1        0.0028
     22 C          62.1779   92.8727    1.9606 C.ar    1  UNL1        0.0207
     23 C          60.8300   93.4771    1.7004 C.ar    1  UNL1        0.0985
     24 N          59.6849   93.1818    2.6232 N.ar    1  UNL1       -0.2468
     25 C          61.3126   88.2993   11.5467 C.3     1  UNL1        0.0888
     26 C          62.3164   89.4137   11.5245 C.3     1  UNL1        0.0748
     27 C          63.1927   89.6577   12.7172 C.3     1  UNL1        0.0432
     28 C          64.1965   90.7721   12.6950 C.ar    1  UNL1       -0.0234
     29 C          65.0728   91.0161   13.8877 C.ar    1  UNL1       -0.0045
     30 C          66.0766   92.1305   13.8655 C.ar    1  UNL1       -0.0003
     31 C          66.2041   93.0009   12.6505 C.ar    1  UNL1       -0.0003
     32 C          65.3279   92.7569   11.4578 C.ar    1  UNL1       -0.0032
     33 C          64.3241   91.6425   11.4800 C.ar    1  UNL1       -0.0103
     34 C          63.4477   91.3985   10.2873 C.3     1  UNL1        0.0953
     35 N          62.4440   90.2841   10.3095 N.3     1  UNL1       -0.2934
     36 H          62.6703   89.6682    9.5286 H       1  UNL1        0.1236
@<TRIPOS>BOND
     1    13    14    2
     2    14    12    1
     3    12     1    1
     4     1    25    1
     5    26    25    1
     6    26    27    1
     7    27    28    1
     8    28    29   ar
     9    29    30   ar
    10    30    31   ar
    11    31    32   ar
    12    32    33   ar
    13    33    34    1
    14    34    35    1
    15     2     1    1
    16     2     3    1
    17     3     4    1
    18     4     5    1
    19     5     6    1
    20     6     7   ar
    21     7     8   ar
    22     8     9   ar
    23     9    10   ar
    24    10    11   ar
    25    13    15    1
    26    15    16    1
    27    16    18    1
    28    18    19    1
    29    19    20   ar
    30    20    21   ar
    31    21    22   ar
    32    22    23   ar
    33    23    24   ar
    34    35    26    1
    35    11     2    1
    36    24    19   ar
    37    33    28   ar
    38    11     6   ar
    39    35    36    1
    40    16    17    1
@<TRIPOS>MOLECULE
*****
 36 40 0 0 0
SMALL
GASTEIGER

@<TRIPOS>ATOM
      1 N          62.2635   89.3221   12.3605 N.3     1  UNL1       -0.2641
      2 C          63.2246   90.1023   13.2075 C.3     1  UNL1        0.0981
      3 C          63.3074   89.8411   14.6823 C.3     1  UNL1        0.0224
      4 C          64.2685   90.6213   15.5293 C.3     1  UNL1        0.0065
      5 C          65.1469   91.6627   14.9017 C.3     1  UNL1        0.0277
      6 C          65.0640   91.9239   13.4269 C.ar    1  UNL1       -0.0073
      7 C          65.9424   92.9653   12.7992 C.ar    1  UNL1       -0.0015
      8 C          65.8596   93.2265   11.3245 C.ar    1  UNL1        0.0203
      9 C          64.8985   92.4463   10.4774 C.ar    1  UNL1        0.0985
     10 N          64.0201   91.4049   11.1051 N.ar    1  UNL1       -0.2471
     11 C          64.1029   91.1437   12.5799 C.ar    1  UNL1        0.0695
     12 C          60.8246   89.7383   12.2816 C.3     1  UNL1        0.0989
     13 C          60.8580   89.3757    9.7091 C.2     1  UNL1       -0.0122
     14 C          60.1108   89.7236   10.9624 C.2     1  UNL1       -0.0120
     15 C          60.1441   89.3610    8.3900 C.3     1  UNL1        0.0954
     16 N          59.1598   88.2718    8.0819 N.3     1  UNL1       -0.2888
     17 H          59.0835   88.2226    7.0660 H       1  UNL1        0.1239
     18 C          59.4119   86.8744    8.5654 C.3     1  UNL1        0.1154
     19 C          60.5284   86.0660    7.9737 C.ar    1  UNL1        0.0750
     20 C          61.8789   86.0617    8.6265 C.ar    1  UNL1        0.0161
     21 C          62.9953   85.2534    8.0348 C.ar    1  UNL1        0.0028
     22 C          62.7613   84.4493    6.7904 C.ar    1  UNL1        0.0207
     23 C          61.4108   84.4536    6.1376 C.ar    1  UNL1        0.0985
     24 N          60.2944   85.2620    6.7292 N.ar    1  UNL1       -0.2468
     25 C          62.7413   88.1256   11.5923 C.3     1  UNL1        0.0888
     26 C          63.0164   86.8360   12.3074 C.3     1  UNL1        0.0748
     27 C          62.6065   85.5328   11.6882 C.3     1  UNL1        0.0432
     28 C          62.8816   84.2432   12.4033 C.ar    1  UNL1       -0.0234
     29 C          62.4717   82.9400   11.7841 C.ar    1  UNL1       -0.0045
     30 C          62.7469   81.6505   12.4992 C.ar    1  UNL1       -0.0003
     31 C          63.4320   81.6642   13.8336 C.ar    1  UNL1       -0.0003
     32 C          63.8419   82.9675   14.4528 C.ar    1  UNL1       -0.0032
     33 C          63.5668   84.2570   13.7376 C.ar    1  UNL1       -0.0103
     34 C          63.9767   85.5603   14.3568 C.3     1  UNL1        0.0953
     35 N          63.7016   86.8498   13.6417 N.3     1  UNL1       -0.2934
     36 H          64.6021   87.3090   13.5056 H       1  UNL1        0.1236
@<TRIPOS>BOND
     1    13    14    2
     2    14    12    1
     3    12     1    1
     4     1    25    1
     5    26    25    1
     6    26    27    1
     7    27    28    1
     8    28    29   ar
     9    29    30   ar
    10    30    31   ar
    11    31    32   ar
    12    32    33   ar
    13    33    34    1
    14    34    35    1
    15     2     1    1
    16     2     3    1
    17     3     4    1
    18     4     5    1
    19     5     6    1
    20     6     7   ar
    21     7     8   ar
    22     8     9   ar
    23     9    10   ar
    24    10    11   ar
    25    13    15    1
    26    15    16    1
    27    16    18    1
    28    18    19    1
    29    19    20   ar
    30    20    21   ar
    31    21    22   ar
    32    22    23   ar
    33    23    24   ar
    34    35    26    1
    35    11     2    1
    36    24    19   ar
    37    33    28   ar
    38    11     6   ar
    39    35    36    1
    40    16    17    1
@<TRIPOS>MOLECULE
*****
 36 40 0 0 0
SMALL
GASTEIGER

@<TRIPOS>ATOM
      1 N          63.8162   89.9181   13.9112 N.3     1  UNL1       -0.2641
      2 C          64.4878   91.0547   13.1992 C.3     1  UNL1        0.0981
      3 C          64.1615   91.3375   11.7627 C.3     1  UNL1        0.0224
      4 C          64.8331   92.4742   11.0508 C.3     1  UNL1        0.0065
      5 C          65.8311   93.3280   11.7752 C.3     1  UNL1        0.0277
      6 C          66.1575   93.0452   13.2117 C.ar    1  UNL1       -0.0073
      7 C          67.1556   93.8990   13.9362 C.ar    1  UNL1       -0.0015
      8 C          67.4819   93.6162   15.3727 C.ar    1  UNL1        0.0203
      9 C          66.8103   92.4796   16.0847 C.ar    1  UNL1        0.0985
     10 N          65.8123   91.6257   15.3602 N.ar    1  UNL1       -0.2471
     11 C          65.4859   91.9085   13.9237 C.ar    1  UNL1        0.0695
     12 C          62.9775   90.1848   15.1259 C.3     1  UNL1        0.0989
     13 C          63.2160   88.2786   16.8752 C.2     1  UNL1       -0.0122
     14 C          62.3798   89.0410   15.8905 C.2     1  UNL1       -0.0120
     15 C          62.6182   87.1349   17.6397 C.3     1  UNL1        0.0954
     16 N          62.7127   85.7395   17.0976 N.3     1  UNL1       -0.2888
     17 H          61.8239   85.5413   16.6381 H       1  UNL1        0.1239
     18 C          63.7939   85.3864   16.1197 C.3     1  UNL1        0.1154
     19 C          63.5478   84.3376   15.0758 C.ar    1  UNL1        0.0750
     20 C          62.4355   83.3475   15.2551 C.ar    1  UNL1        0.0161
     21 C          62.1894   82.2988   14.2112 C.ar    1  UNL1        0.0028
     22 C          63.0558   82.2403   12.9881 C.ar    1  UNL1        0.0207
     23 C          64.1681   83.2304   12.8088 C.ar    1  UNL1        0.0985
     24 N          64.4142   84.2791   13.8527 N.ar    1  UNL1       -0.2468
     25 C          63.9832   88.5147   13.4085 C.3     1  UNL1        0.0888
     26 C          63.0798   87.9913   12.3314 C.3     1  UNL1        0.0748
     27 C          62.4012   88.9445   11.3929 C.3     1  UNL1        0.0432
     28 C          61.4978   88.4211   10.3158 C.ar    1  UNL1       -0.0234
     29 C          60.8192   89.3743    9.3773 C.ar    1  UNL1       -0.0045
     30 C          59.9159   88.8509    8.3003 C.ar    1  UNL1       -0.0003
     31 C          59.6912   87.3743    8.1618 C.ar    1  UNL1       -0.0003
     32 C          60.3698   86.4211    9.1003 C.ar    1  UNL1       -0.0032
     33 C          61.2731   86.9445   10.1773 C.ar    1  UNL1       -0.0103
     34 C          61.9518   85.9913   11.1159 C.3     1  UNL1        0.0953
     35 N          62.8552   86.5147   12.1929 N.3     1  UNL1       -0.2934
     36 H          63.7703   86.0906   12.0416 H       1  UNL1        0.1236
@<TRIPOS>BOND
     1    13    14    2
     2    14    12    1
     3    12     1    1
     4     1    25    1
     5    26    25    1
     6    26    27    1
     7    27    28    1
     8    28    29   ar
     9    29    30   ar
    10    30    31   ar
    11    31    32   ar
    12    32    33   ar
    13    33    34    1
    14    34    35    1
    15     2     1    1
    16     2     3    1
    17     3     4    1
    18     4     5    1
    19     5     6    1
    20     6     7   ar
    21     7     8   ar
    22     8     9   ar
    23     9    10   ar
    24    10    11   ar
    25    13    15    1
    26    15    16    1
    27    16    18    1
    28    18    19    1
    29    19    20   ar
    30    20    21   ar
    31    21    22   ar
    32    22    23   ar
    33    23    24   ar
    34    35    26    1
    35    11     2    1
    36    24    19   ar
    37    33    28   ar
    38    11     6   ar
    39    35    36    1
    40    16    17    1
@<TRIPOS>MOLECULE
*****
 36 40 0 0 0
SMALL
GASTEIGER

@<TRIPOS>ATOM
      1 N          61.7040   87.8104   10.9816 N.3     1  UNL1       -0.2641
      2 C          60.8858   87.3987    9.7937 C.3     1  UNL1        0.0981
      3 C          59.5121   87.9675    9.5956 C.3     1  UNL1        0.0224
      4 C          58.6940   87.5558    8.4077 C.3     1  UNL1        0.0065
      5 C          59.2495   86.5752    7.4179 C.3     1  UNL1        0.0277
      6 C          60.6232   86.0064    7.6160 C.ar    1  UNL1       -0.0073
      7 C          61.1789   85.0258    6.6261 C.ar    1  UNL1       -0.0015
      8 C          62.5526   84.4569    6.8242 C.ar    1  UNL1        0.0203
      9 C          63.3707   84.8686    8.0121 C.ar    1  UNL1        0.0985
     10 N          62.8152   85.8492    9.0019 N.ar    1  UNL1       -0.2471
     11 C          61.4414   86.4181    8.8039 C.ar    1  UNL1        0.0695
     12 C          62.7211   86.8685   11.5546 C.3     1  UNL1        0.0989
     13 C          63.1298   84.3840   12.1950 C.2     1  UNL1       -0.0122
     14 C          62.2758   85.6159   12.2495 C.2     1  UNL1       -0.0120
     15 C          62.6845   83.1315   12.8899 C.3     1  UNL1        0.0954
     16 N          62.5572   83.1077   14.3844 N.3     1  UNL1       -0.2888
     17 H          62.4873   82.1276   14.6583 H       1  UNL1        0.1239
     18 C          63.6273   83.7207   15.2381 C.3     1  UNL1        0.1154
     19 C          63.4368   85.0952   15.8077 C.ar    1  UNL1        0.0750
     20 C          64.1496   86.2654   15.1972 C.ar    1  UNL1        0.0161
     21 C          63.9590   87.6399   15.7667 C.ar    1  UNL1        0.0028
     22 C          63.0558   87.8442   16.9468 C.ar    1  UNL1        0.0207
     23 C          62.3431   86.6741   17.5572 C.ar    1  UNL1        0.0985
     24 N          62.5336   85.2996   16.9877 N.ar    1  UNL1       -0.2468
     25 C          61.5050   89.1639   11.5966 C.3     1  UNL1        0.0888
     26 C          62.6798   90.0732   11.8047 C.3     1  UNL1        0.0748
     27 C          63.3944   90.0853   13.1234 C.3     1  UNL1        0.0432
     28 C          64.5692   90.9946   13.3316 C.ar    1  UNL1       -0.0234
     29 C          65.2838   91.0068   14.6503 C.ar    1  UNL1       -0.0045
     30 C          66.4585   91.9160   14.8584 C.ar    1  UNL1       -0.0003
     31 C          66.9185   92.8131   13.7477 C.ar    1  UNL1       -0.0003
     32 C          66.2039   92.8010   12.4290 C.ar    1  UNL1       -0.0032
     33 C          65.0292   91.8918   12.2209 C.ar    1  UNL1       -0.0103
     34 C          64.3145   91.8796   10.9022 C.3     1  UNL1        0.0953
     35 N          63.1398   90.9704   10.6941 N.3     1  UNL1       -0.2934
     36 H          63.3706   90.3670    9.9047 H       1  UNL1        0.1236
@<TRIPOS>BOND
     1    13    14    2
     2    14    12    1
     3    12     1    1
     4     1    25    1
     5    26    25    1
     6    26    27    1
     7    27    28    1
     8    28    29   ar
     9    29    30   ar
    10    30    31   ar
    11    31    32   ar
    12    32    33   ar
    13    33    34    1
    14    34    35    1
    15     2     1    1
    16     2     3    1
    17     3     4    1
    18     4     5    1
    19     5     6    1
    20     6     7   ar
    21     7     8   ar
    22     8     9   ar
    23     9    10   ar
    24    10    11   ar
    25    13    15    1
    26    15    16    1
    27    16    18    1
    28    18    19    1
    29    19    20   ar
    30    20    21   ar
    31    21    22   ar
    32    22    23   ar
    33    23    24   ar
    34    35    26    1
    35    11     2    1
    36    24    19   ar
    37    33    28   ar
    38    11     6   ar
    39    35    36    1
    40    16    17    1
