@<TRIPOS>MOLECULE
*****
 41 44 0 0 0
SMALL
GASTEIGER

@<TRIPOS>ATOM
      1 C          62.7594   89.7222   12.8980 C.3     1  UNL1        0.1484
      2 O          61.5436   89.9572   13.7445 O.3     1  UNL1       -0.3810
      3 H          60.7808   89.5098   13.3460 H       1  UNL1        0.2105
      4 C          62.6560   88.8972   11.6495 C.3     1  UNL1        0.1245
      5 C          60.9590   87.7501   10.0513 C.2     1  UNL1        0.2492
      6 O          59.7185   87.8145    9.2104 O.2     1  UNL1       -0.2699
      7 N          61.4155   88.9617   10.8086 N.am    1  UNL1       -0.2735
      8 C          63.6185   82.3192   12.0982 C.ar    1  UNL1        0.2057
      9 N          63.9843   82.6354   10.6783 N.ar    1  UNL1       -0.2121
     10 C          63.3110   83.9218   10.3016 C.ar    1  UNL1        0.1185
     11 C          63.3089   84.7190    9.0311 C.ar    1  UNL1        0.0224
     12 C          62.5250   85.9951    8.9476 C.ar    1  UNL1        0.0063
     13 C          61.7430   86.4739   10.1348 C.ar    1  UNL1        0.0567
     14 C          61.7451   85.6767   11.4053 C.ar    1  UNL1        0.0436
     15 C          62.5291   84.4007   11.4888 C.ar    1  UNL1        0.1645
     16 O          62.7191   83.4102   12.5991 O.2     1  UNL1       -0.4384
     17 C          63.1007   80.3832   13.7516 C.3     1  UNL1        0.0102
     18 C          64.0723   81.1222   12.8800 C.3     1  UNL1        0.0853
     19 C          60.6315   90.2378   10.7251 C.3     1  UNL1        0.0937
     20 C          59.3684   90.3953   11.5187 C.3     1  UNL1        0.0199
     21 C          58.6499   91.7119   11.5314 C.3     1  UNL1        0.0018
     22 C          58.8238   89.2360   12.2995 C.3     1  UNL1        0.0018
     23 C          64.0787   90.3121   13.3000 C.3     1  UNL1        0.1075
     24 N          64.6756   91.4306   12.4982 N.am    1  UNL1       -0.2695
     25 C          65.3719   92.5629   13.1930 C.2     1  UNL1        0.4020
     26 O          65.4713   92.5769   14.6897 O.2     1  UNL1       -0.2264
     27 H          64.6104   91.4214   11.5159 H       1  UNL1        0.1528
     28 O          65.9689   93.6814   12.3912 O.3     1  UNL1       -0.4291
     29 C          66.4089   93.4392   10.9779 C.3     1  UNL1        0.2447
     30 C          66.7933   94.5957   10.1035 C.ar    1  UNL1        0.0714
     31 C          67.3979   94.5028    8.7338 C.ar    1  UNL1        0.1053
     32 N          67.6189   95.8979    8.2290 N.ar    1  UNL1       -0.2350
     33 C          67.1510   96.8531    9.2866 C.ar    1  UNL1        0.1343
     34 S          66.6407   96.0483   10.4452 S.2     1  UNL1       -0.0652
     35 C          64.8010   89.7836   14.5037 C.3     1  UNL1        0.0485
     36 C          64.2446   88.6126   15.2580 C.ar    1  UNL1       -0.0204
     37 C          64.5513   87.2154   14.8066 C.ar    1  UNL1       -0.0042
     38 C          63.9949   86.0443   15.5610 C.ar    1  UNL1       -0.0003
     39 C          63.1318   86.2704   16.7667 C.ar    1  UNL1       -0.0000
     40 C          62.8251   87.6676   17.2181 C.ar    1  UNL1       -0.0003
     41 C          63.3815   88.8387   16.4638 C.ar    1  UNL1       -0.0042
@<TRIPOS>BOND
     1    17    18    1
     2    18     8    1
     3     8     9   ar
     4     9    10   ar
     5    10    11   ar
     6    11    12   ar
     7    12    13   ar
     8    13     5    1
     9     5     6    2
    10     5     7   am
    11     7    19    1
    12    19    20    1
    13    20    21    1
    14    20    22    1
    15     7     4    1
    16     4     1    1
    17     1     2    1
    18     1    23    1
    19    23    35    1
    20    35    36    1
    21    36    37   ar
    22    37    38   ar
    23    38    39   ar
    24    39    40   ar
    25    40    41   ar
    26    23    24    1
    27    24    25   am
    28    25    26    2
    29    25    28    1
    30    28    29    1
    31    29    30    1
    32    30    31   ar
    33    31    32   ar
    34    32    33   ar
    35    33    34   ar
    36    13    14   ar
    37    14    15   ar
    38    15    16   ar
    39    16     8   ar
    40    15    10   ar
    41    41    36   ar
    42    34    30   ar
    43     2     3    1
    44    24    27    1
@<TRIPOS>MOLECULE
*****
 41 44 0 0 0
SMALL
GASTEIGER

@<TRIPOS>ATOM
      1 C          63.3726   90.0160   12.2908 C.3     1  UNL1        0.1484
      2 O          63.7894   91.0469   11.2842 O.3     1  UNL1       -0.3810
      3 H          63.4659   90.7910   10.4063 H       1  UNL1        0.2105
      4 C          62.5769   88.8212   11.8553 C.3     1  UNL1        0.1245
      5 C          61.0172   87.8630   10.0116 C.2     1  UNL1        0.2492
      6 O          59.8633   88.0336    9.0686 O.2     1  UNL1       -0.2699
      7 N          61.4230   88.9918   10.9122 N.am    1  UNL1       -0.2735
      8 C          63.4244   82.2393   11.8381 C.ar    1  UNL1        0.2057
      9 N          63.8814   82.6386   10.4663 N.ar    1  UNL1       -0.2121
     10 C          63.2615   83.9647   10.1390 C.ar    1  UNL1        0.1185
     11 C          63.3535   84.8438    8.9271 C.ar    1  UNL1        0.0224
     12 C          62.6054   86.1432    8.8847 C.ar    1  UNL1        0.0063
     13 C          61.7653   86.5635   10.0541 C.ar    1  UNL1        0.0567
     14 C          61.6734   85.6844   11.2660 C.ar    1  UNL1        0.0436
     15 C          62.4215   84.3850   11.3084 C.ar    1  UNL1        0.1645
     16 O          62.5222   83.3187   12.3585 O.2     1  UNL1       -0.4384
     17 C          62.7924   80.2735   13.4148 C.3     1  UNL1        0.0102
     18 C          63.8033   80.9815   12.5623 C.3     1  UNL1        0.0853
     19 C          60.6749   90.2913   10.8697 C.3     1  UNL1        0.0937
     20 C          59.3963   90.4460   11.6386 C.3     1  UNL1        0.0199
     21 C          58.8953   89.3211   12.4950 C.3     1  UNL1        0.0018
     22 C          58.6186   91.7258   11.5509 C.3     1  UNL1        0.0018
     23 C          63.7514   90.1796   13.7329 C.3     1  UNL1        0.1075
     24 N          63.7517   88.9909   14.6479 N.am    1  UNL1       -0.2695
     25 C          63.3796   89.1555   16.0916 C.2     1  UNL1        0.4020
     26 O          63.0071   90.5088   16.6205 O.2     1  UNL1       -0.2264
     27 H          63.9963   88.1027   14.3007 H       1  UNL1        0.1528
     28 O          63.3800   87.9668   17.0065 O.3     1  UNL1       -0.4291
     29 C          62.5519   86.7619   16.6711 C.3     1  UNL1        0.2447
     30 C          63.1940   85.5631   16.0382 C.ar    1  UNL1        0.0714
     31 C          62.6918   84.1516   16.1127 C.ar    1  UNL1        0.1053
     32 N          63.6385   83.2814   15.3404 N.ar    1  UNL1       -0.2350
     33 C          64.7258   84.1551   14.7884 C.ar    1  UNL1        0.1343
     34 S          64.4511   85.5653   15.2198 S.2     1  UNL1       -0.0652
     35 C          64.1297   91.5319   14.2602 C.3     1  UNL1        0.0485
     36 C          65.5667   91.8479   14.5522 C.ar    1  UNL1       -0.0204
     37 C          66.6131   91.6207   13.5018 C.ar    1  UNL1       -0.0042
     38 C          68.0500   91.9366   13.7939 C.ar    1  UNL1       -0.0003
     39 C          68.4406   92.4799   15.1364 C.ar    1  UNL1       -0.0000
     40 C          67.3942   92.7072   16.1868 C.ar    1  UNL1       -0.0003
     41 C          65.9573   92.3912   15.8947 C.ar    1  UNL1       -0.0042
@<TRIPOS>BOND
     1    17    18    1
     2    18     8    1
     3     8     9   ar
     4     9    10   ar
     5    10    11   ar
     6    11    12   ar
     7    12    13   ar
     8    13     5    1
     9     5     6    2
    10     5     7   am
    11     7    19    1
    12    19    20    1
    13    20    21    1
    14    20    22    1
    15     7     4    1
    16     4     1    1
    17     1     2    1
    18     1    23    1
    19    23    35    1
    20    35    36    1
    21    36    37   ar
    22    37    38   ar
    23    38    39   ar
    24    39    40   ar
    25    40    41   ar
    26    23    24    1
    27    24    25   am
    28    25    26    2
    29    25    28    1
    30    28    29    1
    31    29    30    1
    32    30    31   ar
    33    31    32   ar
    34    32    33   ar
    35    33    34   ar
    36    13    14   ar
    37    14    15   ar
    38    15    16   ar
    39    16     8   ar
    40    15    10   ar
    41    41    36   ar
    42    34    30   ar
    43     2     3    1
    44    24    27    1
@<TRIPOS>MOLECULE
*****
 41 44 0 0 0
SMALL
GASTEIGER

@<TRIPOS>ATOM
      1 C          63.4721   87.7798   13.0242 C.3     1  UNL1        0.1484
      2 O          63.1308   88.8688   12.0509 O.3     1  UNL1       -0.3810
      3 H          63.4757   89.7144   12.3779 H       1  UNL1        0.2105
      4 C          64.2372   88.1029   14.2734 C.3     1  UNL1        0.1245
      5 C          63.9316   90.3820   15.4825 C.2     1  UNL1        0.2492
      6 O          63.2925   91.2046   16.5618 O.2     1  UNL1       -0.2699
      7 N          63.5980   88.9254   15.3527 N.am    1  UNL1       -0.2735
      8 C          66.5616   93.2877   10.4429 C.ar    1  UNL1        0.2057
      9 N          67.5695   92.9595   11.5042 N.ar    1  UNL1       -0.2121
     10 C          66.8500   92.2845   12.6341 C.ar    1  UNL1        0.1185
     11 C          67.3299   91.7394   13.9465 C.ar    1  UNL1        0.0224
     12 C          66.3571   91.1052   14.8959 C.ar    1  UNL1        0.0063
     13 C          64.9044   91.0162   14.5330 C.ar    1  UNL1        0.0567
     14 C          64.4245   91.5613   13.2206 C.ar    1  UNL1        0.0436
     15 C          65.3973   92.1955   12.2711 C.ar    1  UNL1        0.1645
     16 O          65.2191   92.8155   10.9169 O.2     1  UNL1       -0.4384
     17 C          67.5798   95.2767    9.1174 C.3     1  UNL1        0.0102
     18 C          66.8461   93.9686    9.1370 C.3     1  UNL1        0.0853
     19 C          62.6252   88.2912   16.3022 C.3     1  UNL1        0.0937
     20 C          63.0308   87.0858   17.0975 C.3     1  UNL1        0.0199
     21 C          63.7264   85.9412   16.4224 C.3     1  UNL1        0.0018
     22 C          62.7408   87.0251   18.5680 C.3     1  UNL1        0.0018
     23 C          63.0483   86.3675   12.7485 C.3     1  UNL1        0.1075
     24 N          61.8072   86.0993   11.9499 N.am    1  UNL1       -0.2695
     25 C          61.8201   86.2785   10.4608 C.2     1  UNL1        0.4020
     26 O          63.0742   86.7261    9.7701 O.2     1  UNL1       -0.2264
     27 H          60.9841   85.8055   12.4032 H       1  UNL1        0.1528
     28 O          60.5789   86.0103    9.6622 O.3     1  UNL1       -0.4291
     29 C          59.6556   87.1385    9.3095 C.3     1  UNL1        0.2447
     30 C          59.7571   88.4462   10.0373 C.ar    1  UNL1        0.0714
     31 C          60.2747   89.7340    9.4683 C.ar    1  UNL1        0.1053
     32 N          60.1964   90.7794   10.5412 N.ar    1  UNL1       -0.2350
     33 C          59.6304   90.1377   11.7733 C.ar    1  UNL1        0.1343
     34 S          59.3589   88.6957   11.4618 S.2     1  UNL1       -0.0652
     35 C          63.8657   85.2236   13.2712 C.3     1  UNL1        0.0485
     36 C          63.3420   83.8214   13.1735 C.ar    1  UNL1       -0.0204
     37 C          62.5464   83.2375   14.3030 C.ar    1  UNL1       -0.0042
     38 C          62.0227   81.8352   14.2053 C.ar    1  UNL1       -0.0003
     39 C          62.2948   81.0169   12.9780 C.ar    1  UNL1       -0.0000
     40 C          63.0904   81.6008   11.8485 C.ar    1  UNL1       -0.0003
     41 C          63.6141   83.0030   11.9462 C.ar    1  UNL1       -0.0042
@<TRIPOS>BOND
     1    17    18    1
     2    18     8    1
     3     8     9   ar
     4     9    10   ar
     5    10    11   ar
     6    11    12   ar
     7    12    13   ar
     8    13     5    1
     9     5     6    2
    10     5     7   am
    11     7    19    1
    12    19    20    1
    13    20    21    1
    14    20    22    1
    15     7     4    1
    16     4     1    1
    17     1     2    1
    18     1    23    1
    19    23    35    1
    20    35    36    1
    21    36    37   ar
    22    37    38   ar
    23    38    39   ar
    24    39    40   ar
    25    40    41   ar
    26    23    24    1
    27    24    25   am
    28    25    26    2
    29    25    28    1
    30    28    29    1
    31    29    30    1
    32    30    31   ar
    33    31    32   ar
    34    32    33   ar
    35    33    34   ar
    36    13    14   ar
    37    14    15   ar
    38    15    16   ar
    39    16     8   ar
    40    15    10   ar
    41    41    36   ar
    42    34    30   ar
    43     2     3    1
    44    24    27    1
@<TRIPOS>MOLECULE
*****
 41 44 0 0 0
SMALL
GASTEIGER

@<TRIPOS>ATOM
      1 C          61.9490   89.3458   11.9385 C.3     1  UNL1        0.1484
      2 O          60.9440   90.0794   12.7763 O.3     1  UNL1       -0.3810
      3 H          61.4064   90.6412   13.4178 H       1  UNL1        0.2105
      4 C          63.4159   89.5524   12.1744 C.3     1  UNL1        0.1245
      5 C          64.1091   90.3590   14.5447 C.2     1  UNL1        0.2492
      6 O          64.5749   91.4520   15.4604 O.2     1  UNL1       -0.2699
      7 N          63.8817   90.6454   13.0900 N.am    1  UNL1       -0.2735
      8 C          63.8626   84.0193   15.2546 C.ar    1  UNL1        0.2057
      9 N          63.2866   84.7493   16.4315 N.ar    1  UNL1       -0.2121
     10 C          63.3941   86.2210   16.1621 C.ar    1  UNL1        0.1185
     11 C          62.9901   87.4208   16.9665 C.ar    1  UNL1        0.0224
     12 C          63.2284   88.8001   16.4274 C.ar    1  UNL1        0.0063
     13 C          63.8708   88.9796   15.0838 C.ar    1  UNL1        0.0567
     14 C          64.2749   87.7798   14.2794 C.ar    1  UNL1        0.0436
     15 C          64.0365   86.4005   14.8185 C.ar    1  UNL1        0.1645
     16 O          64.3260   85.0397   14.2577 O.2     1  UNL1       -0.4384
     17 C          62.9225   81.7897   14.3084 C.3     1  UNL1        0.0102
     18 C          63.9583   82.5302   15.1014 C.3     1  UNL1        0.0853
     19 C          64.1200   92.0247   12.5509 C.3     1  UNL1        0.0937
     20 C          65.4587   92.3852   11.9783 C.3     1  UNL1        0.0199
     21 C          65.5819   92.7429   10.5268 C.3     1  UNL1        0.0018
     22 C          66.6743   92.3880   12.8572 C.3     1  UNL1        0.0018
     23 C          61.4871   88.4056   10.8649 C.3     1  UNL1        0.1075
     24 N          61.3741   88.8832    9.4474 N.am    1  UNL1       -0.2695
     25 C          60.2409   88.4117    8.5852 C.2     1  UNL1        0.4020
     26 O          59.2206   87.4626    9.1404 O.2     1  UNL1       -0.2264
     27 H          62.0438   89.5061    9.0830 H       1  UNL1        0.1528
     28 O          60.1280   88.8893    7.1677 O.3     1  UNL1       -0.4291
     29 C          58.8409   89.4826    6.6764 C.3     1  UNL1        0.2447
     30 C          58.8636   90.5928    5.6681 C.ar    1  UNL1        0.0714
     31 C          57.6698   91.3423    5.1549 C.ar    1  UNL1        0.1053
     32 N          58.1524   92.3613    4.1655 N.ar    1  UNL1       -0.2350
     33 C          59.6444   92.2416    4.0672 C.ar    1  UNL1        0.1343
     34 S          60.0839   91.1486    4.9959 S.2     1  UNL1       -0.0652
     35 C          61.1381   86.9879   11.2088 C.3     1  UNL1        0.0485
     36 C          62.0128   85.8645   10.7366 C.ar    1  UNL1       -0.0204
     37 C          62.4577   85.8112    9.3051 C.ar    1  UNL1       -0.0042
     38 C          63.3324   84.6879    8.8329 C.ar    1  UNL1       -0.0003
     39 C          63.7622   83.6178    9.7922 C.ar    1  UNL1       -0.0000
     40 C          63.3172   83.6711   11.2236 C.ar    1  UNL1       -0.0003
     41 C          62.4425   84.7945   11.6958 C.ar    1  UNL1       -0.0042
@<TRIPOS>BOND
     1    17    18    1
     2    18     8    1
     3     8     9   ar
     4     9    10   ar
     5    10    11   ar
     6    11    12   ar
     7    12    13   ar
     8    13     5    1
     9     5     6    2
    10     5     7   am
    11     7    19    1
    12    19    20    1
    13    20    21    1
    14    20    22    1
    15     7     4    1
    16     4     1    1
    17     1     2    1
    18     1    23    1
    19    23    35    1
    20    35    36    1
    21    36    37   ar
    22    37    38   ar
    23    38    39   ar
    24    39    40   ar
    25    40    41   ar
    26    23    24    1
    27    24    25   am
    28    25    26    2
    29    25    28    1
    30    28    29    1
    31    29    30    1
    32    30    31   ar
    33    31    32   ar
    34    32    33   ar
    35    33    34   ar
    36    13    14   ar
    37    14    15   ar
    38    15    16   ar
    39    16     8   ar
    40    15    10   ar
    41    41    36   ar
    42    34    30   ar
    43     2     3    1
    44    24    27    1
@<TRIPOS>MOLECULE
*****
 41 44 0 0 0
SMALL
GASTEIGER

@<TRIPOS>ATOM
      1 C          63.4624   90.0198   12.5263 C.3     1  UNL1        0.1484
      2 O          63.7551   91.1224   11.5524 O.3     1  UNL1       -0.3810
      3 H          63.3556   90.9104   10.6943 H       1  UNL1        0.2105
      4 C          62.6588   88.8297   12.0925 C.3     1  UNL1        0.1245
      5 C          61.1103   87.8678   10.2413 C.2     1  UNL1        0.2492
      6 O          59.9719   88.0416    9.2802 O.2     1  UNL1       -0.2699
      7 N          61.5204   89.0034   11.1313 N.am    1  UNL1       -0.2735
      8 C          63.5321   82.3077   12.2354 C.ar    1  UNL1        0.2057
      9 N          63.9122   82.6218   10.8188 N.ar    1  UNL1       -0.2121
     10 C          63.2952   83.9397   10.4546 C.ar    1  UNL1        0.1185
     11 C          63.3284   84.7487    9.1920 C.ar    1  UNL1        0.0224
     12 C          62.6001   86.0581    9.1209 C.ar    1  UNL1        0.0063
     13 C          61.8386   86.5584   10.3125 C.ar    1  UNL1        0.0567
     14 C          61.8054   85.7494   11.5751 C.ar    1  UNL1        0.0436
     15 C          62.5337   84.4400   11.6462 C.ar    1  UNL1        0.1645
     16 O          62.6801   83.4314   12.7468 O.2     1  UNL1       -0.4384
     17 C          62.8946   80.2779   13.7266 C.3     1  UNL1        0.0102
     18 C          63.9334   81.0846   13.0055 C.3     1  UNL1        0.0853
     19 C          60.7920   90.3129   11.0602 C.3     1  UNL1        0.0937
     20 C          59.4462   90.4586   11.7063 C.3     1  UNL1        0.0199
     21 C          58.8934   89.3460   12.5469 C.3     1  UNL1        0.0018
     22 C          58.6531   91.7169   11.5118 C.3     1  UNL1        0.0018
     23 C          63.9732   90.1071   13.9339 C.3     1  UNL1        0.1075
     24 N          65.2947   90.7597   14.2131 N.am    1  UNL1       -0.2695
     25 C          65.4114   91.7794   15.3069 C.2     1  UNL1        0.4020
     26 O          64.2067   92.1465   16.1217 O.2     1  UNL1       -0.2264
     27 H          66.0854   90.5188   13.6783 H       1  UNL1        0.1528
     28 O          66.7329   92.4320   15.5861 O.3     1  UNL1       -0.4291
     29 C          67.2780   93.4579   14.6373 C.3     1  UNL1        0.2447
     30 C          67.1272   93.2658   13.1573 C.ar    1  UNL1        0.0714
     31 C          67.8525   92.2532   12.3212 C.ar    1  UNL1        0.1053
     32 N          67.3983   92.4140   10.9007 N.ar    1  UNL1       -0.2350
     33 C          66.3923   93.5260   10.8588 C.ar    1  UNL1        0.1343
     34 S          66.2248   94.0524   12.2534 S.2     1  UNL1       -0.0652
     35 C          63.1627   89.5418   15.0623 C.3     1  UNL1        0.0485
     36 C          63.4197   88.1447   15.5441 C.ar    1  UNL1       -0.0204
     37 C          62.8402   87.6825   16.8481 C.ar    1  UNL1       -0.0042
     38 C          63.0973   86.2854   17.3298 C.ar    1  UNL1       -0.0003
     39 C          63.9338   85.3505   16.5075 C.ar    1  UNL1       -0.0000
     40 C          64.5133   85.8127   15.2035 C.ar    1  UNL1       -0.0003
     41 C          64.2562   87.2098   14.7218 C.ar    1  UNL1       -0.0042
@<TRIPOS>BOND
     1    17    18    1
     2    18     8    1
     3     8     9   ar
     4     9    10   ar
     5    10    11   ar
     6    11    12   ar
     7    12    13   ar
     8    13     5    1
     9     5     6    2
    10     5     7   am
    11     7    19    1
    12    19    20    1
    13    20    21    1
    14    20    22    1
    15     7     4    1
    16     4     1    1
    17     1     2    1
    18     1    23    1
    19    23    35    1
    20    35    36    1
    21    36    37   ar
    22    37    38   ar
    23    38    39   ar
    24    39    40   ar
    25    40    41   ar
    26    23    24    1
    27    24    25   am
    28    25    26    2
    29    25    28    1
    30    28    29    1
    31    29    30    1
    32    30    31   ar
    33    31    32   ar
    34    32    33   ar
    35    33    34   ar
    36    13    14   ar
    37    14    15   ar
    38    15    16   ar
    39    16     8   ar
    40    15    10   ar
    41    41    36   ar
    42    34    30   ar
    43     2     3    1
    44    24    27    1
@<TRIPOS>MOLECULE
*****
 41 44 0 0 0
SMALL
GASTEIGER

@<TRIPOS>ATOM
      1 C          61.0465   90.3406   10.5267 C.3     1  UNL1        0.1484
      2 O          60.1209   90.6047   11.6771 O.3     1  UNL1       -0.3810
      3 H          59.2019   90.5513   11.3715 H       1  UNL1        0.2105
      4 C          60.4872   90.0516    9.1651 C.3     1  UNL1        0.1245
      5 C          59.2395   88.4511    7.5430 C.2     1  UNL1        0.2492
      6 O          58.6489   87.1048    7.2450 O.2     1  UNL1       -0.2699
      7 N          59.8965   88.7054    8.8672 N.am    1  UNL1       -0.2735
      8 C          60.7437   92.7546    3.0737 C.ar    1  UNL1        0.2057
      9 N          59.2824   92.7681    3.4118 N.ar    1  UNL1       -0.2121
     10 C          59.0403   91.7267    4.4640 C.ar    1  UNL1        0.1185
     11 C          57.7950   91.2920    5.1781 C.ar    1  UNL1        0.0224
     12 C          57.8614   90.2001    6.2044 C.ar    1  UNL1        0.0063
     13 C          59.1732   89.5430    6.5166 C.ar    1  UNL1        0.0567
     14 C          60.4185   89.9777    5.8025 C.ar    1  UNL1        0.0436
     15 C          60.3521   91.0696    4.7762 C.ar    1  UNL1        0.1645
     16 O          61.4048   91.7049    3.9169 O.2     1  UNL1       -0.4384
     17 C          61.8371   93.0778    0.7392 C.3     1  UNL1        0.0102
     18 C          61.4244   93.6360    2.0688 C.3     1  UNL1        0.0853
     19 C          59.9629   87.6135    9.8936 C.3     1  UNL1        0.0937
     20 C          61.1123   86.6496    9.8899 C.3     1  UNL1        0.0199
     21 C          61.8763   86.3983    8.6239 C.3     1  UNL1        0.0018
     22 C          61.4976   85.9371   11.1525 C.3     1  UNL1        0.0018
     23 C          62.5314   90.3653   10.7378 C.3     1  UNL1        0.1075
     24 N          63.2283   89.1646   11.3058 N.am    1  UNL1       -0.2695
     25 C          63.1079   88.8493   12.7673 C.2     1  UNL1        0.4020
     26 O          62.2907   89.7346   13.6608 O.2     1  UNL1       -0.2264
     27 H          63.7647   88.5835   10.7194 H       1  UNL1        0.1528
     28 O          63.8048   87.6485   13.3354 O.3     1  UNL1       -0.4291
     29 C          64.3667   87.6953   14.7254 C.3     1  UNL1        0.2447
     30 C          63.6371   87.0260   15.8522 C.ar    1  UNL1        0.0714
     31 C          63.3167   85.5638   15.9499 C.ar    1  UNL1        0.1053
     32 N          62.5814   85.3355   17.2372 N.ar    1  UNL1       -0.2350
     33 C          62.4473   86.6565   17.9351 C.ar    1  UNL1        0.1343
     34 S          63.0998   87.7013   17.0791 S.2     1  UNL1       -0.0652
     35 C          63.3193   91.5907   10.3808 C.3     1  UNL1        0.0485
     36 C          64.5634   91.9318   11.1462 C.ar    1  UNL1       -0.0204
     37 C          64.5630   91.8685   12.6448 C.ar    1  UNL1       -0.0042
     38 C          65.8071   92.2096   13.4102 C.ar    1  UNL1       -0.0003
     39 C          67.0517   92.6139   12.6770 C.ar    1  UNL1       -0.0000
     40 C          67.0521   92.6772   11.1784 C.ar    1  UNL1       -0.0003
     41 C          65.8079   92.3361   10.4130 C.ar    1  UNL1       -0.0042
@<TRIPOS>BOND
     1    17    18    1
     2    18     8    1
     3     8     9   ar
     4     9    10   ar
     5    10    11   ar
     6    11    12   ar
     7    12    13   ar
     8    13     5    1
     9     5     6    2
    10     5     7   am
    11     7    19    1
    12    19    20    1
    13    20    21    1
    14    20    22    1
    15     7     4    1
    16     4     1    1
    17     1     2    1
    18     1    23    1
    19    23    35    1
    20    35    36    1
    21    36    37   ar
    22    37    38   ar
    23    38    39   ar
    24    39    40   ar
    25    40    41   ar
    26    23    24    1
    27    24    25   am
    28    25    26    2
    29    25    28    1
    30    28    29    1
    31    29    30    1
    32    30    31   ar
    33    31    32   ar
    34    32    33   ar
    35    33    34   ar
    36    13    14   ar
    37    14    15   ar
    38    15    16   ar
    39    16     8   ar
    40    15    10   ar
    41    41    36   ar
    42    34    30   ar
    43     2     3    1
    44    24    27    1
@<TRIPOS>MOLECULE
*****
 41 44 0 0 0
SMALL
GASTEIGER

@<TRIPOS>ATOM
      1 C          62.8702   87.0928   11.7184 C.3     1  UNL1        0.1484
      2 O          63.5094   87.9478   12.7721 O.3     1  UNL1       -0.3810
      3 H          63.5938   88.8566   12.4437 H       1  UNL1        0.2105
      4 C          62.4747   87.6944   10.4025 C.3     1  UNL1        0.1245
      5 C          61.1335   89.9084   10.6250 C.2     1  UNL1        0.2492
      6 O          59.8431   90.6634   10.5031 O.2     1  UNL1       -0.2699
      7 N          61.1843   88.4494   10.2805 N.am    1  UNL1       -0.2735
      8 C          65.7845   92.3738   14.2372 C.ar    1  UNL1        0.2057
      9 N          65.9942   92.6385   12.7757 N.ar    1  UNL1       -0.2121
     10 C          64.8525   92.0206   12.0242 C.ar    1  UNL1        0.1185
     11 C          64.5282   91.9632   10.5608 C.ar    1  UNL1        0.0224
     12 C          63.2885   91.2592   10.0945 C.ar    1  UNL1        0.0063
     13 C          62.3732   90.6125   11.0915 C.ar    1  UNL1        0.0567
     14 C          62.6976   90.6699   12.5548 C.ar    1  UNL1        0.0436
     15 C          63.9372   91.3739   13.0212 C.ar    1  UNL1        0.1645
     16 O          64.5132   91.5922   14.3889 O.2     1  UNL1       -0.4384
     17 C          67.9932   92.1113   15.5798 C.3     1  UNL1        0.0102
     18 C          66.6875   92.8134   15.3513 C.3     1  UNL1        0.0853
     19 C          59.9446   87.7453    9.8141 C.3     1  UNL1        0.0937
     20 C          59.7675   87.4227    8.3600 C.3     1  UNL1        0.0199
     21 C          59.1916   88.4481    7.4289 C.3     1  UNL1        0.0018
     22 C          60.1662   86.0745    7.8369 C.3     1  UNL1        0.0018
     23 C          62.6264   85.6361   11.9806 C.3     1  UNL1        0.1075
     24 N          62.3537   85.1608   13.3770 N.am    1  UNL1       -0.2695
     25 C          63.4654   84.5864   14.2042 C.2     1  UNL1        0.4020
     26 O          64.8497   84.4873   13.6351 O.2     1  UNL1       -0.2264
     27 H          61.4452   85.2258   13.7505 H       1  UNL1        0.1528
     28 O          63.1927   84.1110   15.6006 O.3     1  UNL1       -0.4291
     29 C          63.4535   85.0185   16.7661 C.3     1  UNL1        0.2447
     30 C          63.4283   86.5064   16.5784 C.ar    1  UNL1        0.0714
     31 C          64.1035   87.2677   15.4763 C.ar    1  UNL1        0.1053
     32 N          63.8159   88.7262   15.6766 N.ar    1  UNL1       -0.2350
     33 C          62.9629   88.8664   16.9025 C.ar    1  UNL1        0.1343
     34 S          62.7233   87.4945   17.4598 S.2     1  UNL1       -0.0652
     35 C          62.6552   84.6549   10.8465 C.3     1  UNL1        0.0485
     36 C          62.7360   83.1840   11.1293 C.ar    1  UNL1       -0.0204
     37 C          62.1449   82.6293   12.3914 C.ar    1  UNL1       -0.0042
     38 C          62.2256   81.1584   12.6741 C.ar    1  UNL1       -0.0003
     39 C          62.8975   80.2422   11.6948 C.ar    1  UNL1       -0.0000
     40 C          63.4886   80.7969   10.4328 C.ar    1  UNL1       -0.0003
     41 C          63.4079   82.2677   10.1500 C.ar    1  UNL1       -0.0042
@<TRIPOS>BOND
     1    17    18    1
     2    18     8    1
     3     8     9   ar
     4     9    10   ar
     5    10    11   ar
     6    11    12   ar
     7    12    13   ar
     8    13     5    1
     9     5     6    2
    10     5     7   am
    11     7    19    1
    12    19    20    1
    13    20    21    1
    14    20    22    1
    15     7     4    1
    16     4     1    1
    17     1     2    1
    18     1    23    1
    19    23    35    1
    20    35    36    1
    21    36    37   ar
    22    37    38   ar
    23    38    39   ar
    24    39    40   ar
    25    40    41   ar
    26    23    24    1
    27    24    25   am
    28    25    26    2
    29    25    28    1
    30    28    29    1
    31    29    30    1
    32    30    31   ar
    33    31    32   ar
    34    32    33   ar
    35    33    34   ar
    36    13    14   ar
    37    14    15   ar
    38    15    16   ar
    39    16     8   ar
    40    15    10   ar
    41    41    36   ar
    42    34    30   ar
    43     2     3    1
    44    24    27    1
@<TRIPOS>MOLECULE
*****
 41 44 0 0 0
SMALL
GASTEIGER

@<TRIPOS>ATOM
      1 C          62.3676   86.5495   10.9848 C.3     1  UNL1        0.1484
      2 O          62.0877   86.5852   12.4579 O.3     1  UNL1       -0.3810
      3 H          61.8520   87.4887   12.7204 H       1  UNL1        0.2105
      4 C          62.2584   87.8042   10.1699 C.3     1  UNL1        0.1245
      5 C          61.0725   90.0422   10.7484 C.2     1  UNL1        0.2492
      6 O          59.8248   90.8724   10.8133 O.2     1  UNL1       -0.2699
      7 N          61.0107   88.6343   10.2348 N.am    1  UNL1       -0.2735
      8 C          66.2192   91.6061   14.1868 C.ar    1  UNL1        0.2057
      9 N          66.2473   92.2036   12.8112 N.ar    1  UNL1       -0.2121
     10 C          65.0009   91.7759   12.0945 C.ar    1  UNL1        0.1185
     11 C          64.4898   92.0599   10.7132 C.ar    1  UNL1        0.0224
     12 C          63.1804   91.4820   10.2645 C.ar    1  UNL1        0.0063
     13 C          62.3820   90.6201   11.1971 C.ar    1  UNL1        0.0567
     14 C          62.8931   90.3361   12.5785 C.ar    1  UNL1        0.0436
     15 C          64.2025   90.9140   13.0272 C.ar    1  UNL1        0.1645
     16 O          64.9555   90.8091   14.3202 O.2     1  UNL1       -0.4384
     17 C          67.5329   93.1314   15.8293 C.3     1  UNL1        0.0102
     18 C          67.2704   91.7757   15.2434 C.3     1  UNL1        0.0853
     19 C          59.7012   88.0564    9.7860 C.3     1  UNL1        0.0937
     20 C          59.3265   88.0864    8.3339 C.3     1  UNL1        0.0199
     21 C          59.8035   89.2078    7.4593 C.3     1  UNL1        0.0018
     22 C          58.4747   86.9951    7.7564 C.3     1  UNL1        0.0018
     23 C          62.7568   85.2591   10.3263 C.3     1  UNL1        0.1075
     24 N          62.4743   83.9537   11.0091 N.am    1  UNL1       -0.2695
     25 C          63.5910   82.9869   11.2704 C.2     1  UNL1        0.4020
     26 O          64.9902   83.3255   10.8489 O.2     1  UNL1       -0.2264
     27 H          61.5560   83.7314   11.2857 H       1  UNL1        0.1528
     28 O          63.3086   81.6815   11.9532 O.3     1  UNL1       -0.4291
     29 C          63.2647   81.6125   13.4509 C.3     1  UNL1        0.2447
     30 C          63.2248   82.8756   14.2589 C.ar    1  UNL1        0.0714
     31 C          61.9950   83.5220   14.8245 C.ar    1  UNL1        0.1053
     32 N          62.4177   84.7600   15.5584 N.ar    1  UNL1       -0.2350
     33 C          63.9088   84.8788   15.4465 C.ar    1  UNL1        0.1343
     34 S          64.4076   83.7142   14.6433 S.2     1  UNL1       -0.0652
     35 C          63.4284   85.2741    8.9852 C.3     1  UNL1        0.0485
     36 C          62.6432   84.9477    7.7495 C.ar    1  UNL1       -0.0204
     37 C          61.1485   85.0741    7.7554 C.ar    1  UNL1       -0.0042
     38 C          60.3633   84.7477    6.5198 C.ar    1  UNL1       -0.0003
     39 C          61.0727   84.2949    5.2781 C.ar    1  UNL1       -0.0000
     40 C          62.5674   84.1685    5.2722 C.ar    1  UNL1       -0.0003
     41 C          63.3526   84.4949    6.5079 C.ar    1  UNL1       -0.0042
@<TRIPOS>BOND
     1    17    18    1
     2    18     8    1
     3     8     9   ar
     4     9    10   ar
     5    10    11   ar
     6    11    12   ar
     7    12    13   ar
     8    13     5    1
     9     5     6    2
    10     5     7   am
    11     7    19    1
    12    19    20    1
    13    20    21    1
    14    20    22    1
    15     7     4    1
    16     4     1    1
    17     1     2    1
    18     1    23    1
    19    23    35    1
    20    35    36    1
    21    36    37   ar
    22    37    38   ar
    23    38    39   ar
    24    39    40   ar
    25    40    41   ar
    26    23    24    1
    27    24    25   am
    28    25    26    2
    29    25    28    1
    30    28    29    1
    31    29    30    1
    32    30    31   ar
    33    31    32   ar
    34    32    33   ar
    35    33    34   ar
    36    13    14   ar
    37    14    15   ar
    38    15    16   ar
    39    16     8   ar
    40    15    10   ar
    41    41    36   ar
    42    34    30   ar
    43     2     3    1
    44    24    27    1
@<TRIPOS>MOLECULE
*****
 41 44 0 0 0
SMALL
GASTEIGER

@<TRIPOS>ATOM
      1 C          62.9454   86.8480   11.7733 C.3     1  UNL1        0.1484
      2 O          63.5936   87.7197   12.8075 O.3     1  UNL1       -0.3810
      3 H          63.6848   88.6207   12.4599 H       1  UNL1        0.2105
      4 C          62.5523   87.4249   10.4456 C.3     1  UNL1        0.1245
      5 C          61.0109   89.5103   10.6048 C.2     1  UNL1        0.2492
      6 O          59.6630   90.1456   10.4326 O.2     1  UNL1       -0.2699
      7 N          61.2044   88.0602   10.2734 N.am    1  UNL1       -0.2735
      8 C          66.0293   93.4378   10.9878 C.ar    1  UNL1        0.2057
      9 N          65.6559   92.8556   12.3188 N.ar    1  UNL1       -0.2121
     10 C          64.4739   91.9547   12.1155 C.ar    1  UNL1        0.1185
     11 C          63.6767   91.1145   13.0686 C.ar    1  UNL1        0.0224
     12 C          62.5223   90.2997   12.5650 C.ar    1  UNL1        0.0063
     13 C          62.1653   90.3251   11.1084 C.ar    1  UNL1        0.0567
     14 C          62.9625   91.1653   10.1553 C.ar    1  UNL1        0.0436
     15 C          64.1168   91.9801   10.6588 C.ar    1  UNL1        0.1645
     16 O          65.0781   92.8967    9.9619 O.2     1  UNL1       -0.4384
     17 C          66.8767   95.8594   10.5784 C.3     1  UNL1        0.0102
     18 C          67.1561   94.3933   10.7282 C.3     1  UNL1        0.0853
     19 C          60.0500   87.2454    9.7699 C.3     1  UNL1        0.0937
     20 C          59.8502   87.0592    8.2949 C.3     1  UNL1        0.0199
     21 C          60.3287   85.8050    7.6257 C.3     1  UNL1        0.0018
     22 C          59.1720   88.1273    7.4892 C.3     1  UNL1        0.0018
     23 C          62.6903   85.3992   12.0666 C.3     1  UNL1        0.1075
     24 N          62.3698   84.9623   13.4654 N.am    1  UNL1       -0.2695
     25 C          63.4627   84.4673   14.3655 C.2     1  UNL1        0.4020
     26 O          64.8763   84.4091   13.8669 O.2     1  UNL1       -0.2264
     27 H          61.4420   85.0005   13.7926 H       1  UNL1        0.1528
     28 O          63.1422   84.0304   15.7643 O.3     1  UNL1       -0.4291
     29 C          63.3484   84.9752   16.9109 C.3     1  UNL1        0.2447
     30 C          63.3660   86.4555   16.6691 C.ar    1  UNL1        0.0714
     31 C          64.0547   87.1556   15.5352 C.ar    1  UNL1        0.1053
     32 N          63.8123   88.6283   15.6840 N.ar    1  UNL1       -0.2350
     33 C          62.9738   88.8386   16.9099 C.ar    1  UNL1        0.1343
     34 S          62.6980   87.4956   17.5188 S.2     1  UNL1       -0.0652
     35 C          62.7556   84.3874   10.9613 C.3     1  UNL1        0.0485
     36 C          62.7618   82.9227   11.2846 C.ar    1  UNL1       -0.0204
     37 C          63.3230   81.9396   10.3004 C.ar    1  UNL1       -0.0042
     38 C          63.3291   80.4749   10.6238 C.ar    1  UNL1       -0.0003
     39 C          62.7741   79.9932   11.9314 C.ar    1  UNL1       -0.0000
     40 C          62.2129   80.9763   12.9156 C.ar    1  UNL1       -0.0003
     41 C          62.2067   82.4410   12.5922 C.ar    1  UNL1       -0.0042
@<TRIPOS>BOND
     1    17    18    1
     2    18     8    1
     3     8     9   ar
     4     9    10   ar
     5    10    11   ar
     6    11    12   ar
     7    12    13   ar
     8    13     5    1
     9     5     6    2
    10     5     7   am
    11     7    19    1
    12    19    20    1
    13    20    21    1
    14    20    22    1
    15     7     4    1
    16     4     1    1
    17     1     2    1
    18     1    23    1
    19    23    35    1
    20    35    36    1
    21    36    37   ar
    22    37    38   ar
    23    38    39   ar
    24    39    40   ar
    25    40    41   ar
    26    23    24    1
    27    24    25   am
    28    25    26    2
    29    25    28    1
    30    28    29    1
    31    29    30    1
    32    30    31   ar
    33    31    32   ar
    34    32    33   ar
    35    33    34   ar
    36    13    14   ar
    37    14    15   ar
    38    15    16   ar
    39    16     8   ar
    40    15    10   ar
    41    41    36   ar
    42    34    30   ar
    43     2     3    1
    44    24    27    1
