@<TRIPOS>MOLECULE
*****
 26 29 0 0 0
SMALL
GASTEIGER

@<TRIPOS>ATOM
      1 C          61.8925   85.7781   10.4582 C.2     1  UNL1        0.2650
      2 O          62.5773   85.6800    9.1274 O.2     1  UNL1       -0.2684
      3 N          60.7152   86.6917   10.6304 N.am    1  UNL1       -0.3011
      4 H          60.2657   86.7561   11.5039 H       1  UNL1        0.1497
      5 C          62.8620   83.0886   13.0835 C.ar    1  UNL1        0.1239
      6 N          62.2204   83.4813   11.7857 N.ar    1  UNL1       -0.2260
      7 C          62.3848   84.9627   11.6170 C.ar    1  UNL1        0.1517
      8 C          63.1279   85.4856   12.8105 C.ar    1  UNL1        0.0872
      9 C          63.5741   86.8667   13.1890 C.ar    1  UNL1        0.0193
     10 C          64.3153   87.0896   14.4739 C.ar    1  UNL1        0.0031
     11 C          64.6102   85.9313   15.3803 C.ar    1  UNL1        0.0191
     12 C          64.1640   84.5502   15.0017 C.ar    1  UNL1        0.0811
     13 N          63.4228   84.3273   13.7169 N.ar    1  UNL1       -0.2921
     14 C          61.6824   81.0276   14.1376 C.3     1  UNL1        0.0079
     15 C          62.9306   81.7009   13.6488 C.3     1  UNL1        0.0573
     16 C          64.2472   80.9865   13.7252 C.3     1  UNL1        0.0079
     17 C          60.2229   87.5071    9.4716 C.3     1  UNL1        0.0747
     18 C          60.5824   88.9598    9.3704 C.3     1  UNL1        0.0369
     19 C          60.0900   89.7752    8.2116 C.3     1  UNL1        0.0738
     20 N          59.2383   89.1378    7.1541 N.3     1  UNL1       -0.2726
     21 C          58.8789   87.6851    7.2553 C.3     1  UNL1        0.0738
     22 C          59.3712   86.8697    8.4141 C.3     1  UNL1        0.0369
     23 C          58.7460   89.9533    5.9953 C.3     1  UNL1        0.0720
     24 C          59.6944   90.8427    5.2474 C.3     1  UNL1        0.0160
     25 C          59.9537   92.0862    4.4496 C.3     1  UNL1        0.0014
     26 C          61.0779   91.1396    4.7495 C.3     1  UNL1        0.0014
@<TRIPOS>BOND
     1    14    15    1
     2    15    16    1
     3    15     5    1
     4     5     6   ar
     5     6     7   ar
     6     7     1    1
     7     1     2    2
     8     1     3   am
     9     3    17    1
    10    17    18    1
    11    18    19    1
    12    19    20    1
    13    20    23    1
    14    23    24    1
    15    24    25    1
    16    25    26    1
    17    20    21    1
    18    21    22    1
    19     7     8   ar
    20     8     9   ar
    21     9    10   ar
    22    10    11   ar
    23    11    12   ar
    24    12    13   ar
    25    13     5   ar
    26    22    17    1
    27    13     8   ar
    28    26    24    1
    29     3     4    1
@<TRIPOS>MOLECULE
*****
 26 29 0 0 0
SMALL
GASTEIGER

@<TRIPOS>ATOM
      1 C          62.1030   86.0821   10.6307 C.2     1  UNL1        0.2650
      2 O          62.5272   85.6446    9.2602 O.2     1  UNL1       -0.2684
      3 N          61.0553   87.1441   10.7882 N.am    1  UNL1       -0.3011
      4 H          60.7769   87.4313   11.6878 H       1  UNL1        0.1497
      5 C          63.8095   85.1788   13.9978 C.ar    1  UNL1        0.1239
      6 N          63.2931   86.1939   13.0216 N.ar    1  UNL1       -0.2260
      7 C          62.7264   85.4578   11.8438 C.ar    1  UNL1        0.1517
      8 C          62.8925   83.9879   12.0921 C.ar    1  UNL1        0.0872
      9 C          62.5207   82.7842   11.2780 C.ar    1  UNL1        0.0193
     10 C          62.8183   81.4080   11.7952 C.ar    1  UNL1        0.0031
     11 C          63.4877   81.2355   13.1264 C.ar    1  UNL1        0.0191
     12 C          63.8595   82.4392   13.9405 C.ar    1  UNL1        0.0811
     13 N          63.5619   83.8154   13.4234 N.ar    1  UNL1       -0.2921
     14 C          63.6263   85.5571   16.5617 C.3     1  UNL1        0.0079
     15 C          64.4593   85.4750   15.3168 C.3     1  UNL1        0.0573
     16 C          65.9420   85.6892   15.3912 C.3     1  UNL1        0.0079
     17 C          60.4319   87.7684    9.5751 C.3     1  UNL1        0.0747
     18 C          59.5813   86.9399    8.6586 C.3     1  UNL1        0.0369
     19 C          58.9579   87.5642    7.4455 C.3     1  UNL1        0.0738
     20 N          59.1852   89.0169    7.1489 N.3     1  UNL1       -0.2726
     21 C          60.0359   89.8454    8.0654 C.3     1  UNL1        0.0738
     22 C          60.6592   89.2211    9.2785 C.3     1  UNL1        0.0369
     23 C          58.5617   89.6412    5.9357 C.3     1  UNL1        0.0720
     24 C          59.2280   90.8059    5.2652 C.3     1  UNL1        0.0160
     25 C          59.1596   92.1959    4.7057 C.3     1  UNL1        0.0014
     26 C          60.4504   91.4331    4.6632 C.3     1  UNL1        0.0014
@<TRIPOS>BOND
     1    14    15    1
     2    15    16    1
     3    15     5    1
     4     5     6   ar
     5     6     7   ar
     6     7     1    1
     7     1     2    2
     8     1     3   am
     9     3    17    1
    10    17    18    1
    11    18    19    1
    12    19    20    1
    13    20    23    1
    14    23    24    1
    15    24    25    1
    16    25    26    1
    17    20    21    1
    18    21    22    1
    19     7     8   ar
    20     8     9   ar
    21     9    10   ar
    22    10    11   ar
    23    11    12   ar
    24    12    13   ar
    25    13     5   ar
    26    22    17    1
    27    13     8   ar
    28    26    24    1
    29     3     4    1
@<TRIPOS>MOLECULE
*****
 26 29 0 0 0
SMALL
GASTEIGER

@<TRIPOS>ATOM
      1 C          63.6170   86.9765   14.1082 C.2     1  UNL1        0.2650
      2 O          63.5375   86.4467   15.5091 O.2     1  UNL1       -0.2684
      3 N          63.2680   86.0894   12.9499 N.am    1  UNL1       -0.3011
      4 H          63.3201   86.4371   12.0303 H       1  UNL1        0.1497
      5 C          65.0967   90.5647   14.1308 C.ar    1  UNL1        0.1239
      6 N          64.9314   89.2117   14.7571 N.ar    1  UNL1       -0.2260
      7 C          64.0455   88.3933   13.8652 C.ar    1  UNL1        0.1517
      8 C          63.6633   89.2404   12.6878 C.ar    1  UNL1        0.0872
      9 C          62.8077   88.9632   11.4874 C.ar    1  UNL1        0.0193
     10 C          62.6017   90.0279   10.4512 C.ar    1  UNL1        0.0031
     11 C          63.2514   91.3699   10.6153 C.ar    1  UNL1        0.0191
     12 C          64.1071   91.6472   11.8157 C.ar    1  UNL1        0.0811
     13 N          64.3130   90.5824   12.8519 N.ar    1  UNL1       -0.2921
     14 C          67.0807   92.2290   13.9201 C.3     1  UNL1        0.0079
     15 C          65.9040   91.7005   14.6859 C.3     1  UNL1        0.0573
     16 C          65.5348   92.3079   16.0067 C.3     1  UNL1        0.0079
     17 C          62.8395   84.6726   13.1929 C.3     1  UNL1        0.0747
     18 C          62.4497   84.2332   14.5730 C.3     1  UNL1        0.0369
     19 C          62.0212   82.8164   14.8160 C.3     1  UNL1        0.0738
     20 N          61.9825   81.8391   13.6787 N.3     1  UNL1       -0.2726
     21 C          62.3722   82.2785   12.2985 C.3     1  UNL1        0.0738
     22 C          62.8007   83.6953   12.0556 C.3     1  UNL1        0.0369
     23 C          61.5539   80.4222   13.9218 C.3     1  UNL1        0.0720
     24 C          60.1069   80.1065   14.1592 C.3     1  UNL1        0.0160
     25 C          58.6726   80.5430   14.2048 C.3     1  UNL1        0.0014
     26 C          59.0349   79.1231   14.5250 C.3     1  UNL1        0.0014
@<TRIPOS>BOND
     1    14    15    1
     2    15    16    1
     3    15     5    1
     4     5     6   ar
     5     6     7   ar
     6     7     1    1
     7     1     2    2
     8     1     3   am
     9     3    17    1
    10    17    18    1
    11    18    19    1
    12    19    20    1
    13    20    23    1
    14    23    24    1
    15    24    25    1
    16    25    26    1
    17    20    21    1
    18    21    22    1
    19     7     8   ar
    20     8     9   ar
    21     9    10   ar
    22    10    11   ar
    23    11    12   ar
    24    12    13   ar
    25    13     5   ar
    26    22    17    1
    27    13     8   ar
    28    26    24    1
    29     3     4    1
@<TRIPOS>MOLECULE
*****
 26 29 0 0 0
SMALL
GASTEIGER

@<TRIPOS>ATOM
      1 C          64.1756   89.8379   13.6067 C.2     1  UNL1        0.2650
      2 O          62.7215   89.6980   13.2666 O.2     1  UNL1       -0.2684
      3 N          64.9079   88.6985   14.2517 N.am    1  UNL1       -0.3011
      4 H          65.8623   88.7903   14.4750 H       1  UNL1        0.1497
      5 C          65.7223   93.0815   12.1399 C.ar    1  UNL1        0.1239
      6 N          64.8587   91.8629   12.0013 N.ar    1  UNL1       -0.2260
      7 C          64.8976   91.1169   13.3020 C.ar    1  UNL1        0.1517
      8 C          65.7853   91.8743   14.2445 C.ar    1  UNL1        0.0872
      9 C          66.1953   91.6153   15.6639 C.ar    1  UNL1        0.0193
     10 C          67.1150   92.5705   16.3650 C.ar    1  UNL1        0.0031
     11 C          67.6247   93.7847   15.6468 C.ar    1  UNL1        0.0191
     12 C          67.2147   94.0438   14.2274 C.ar    1  UNL1        0.0811
     13 N          66.2950   93.0886   13.5262 N.ar    1  UNL1       -0.2921
     14 C          66.4969   93.6958    9.7372 C.3     1  UNL1        0.0079
     15 C          65.9698   94.1121   11.0785 C.3     1  UNL1        0.0573
     16 C          65.6903   95.5590   11.3582 C.3     1  UNL1        0.0079
     17 C          64.1859   87.4195   14.5564 C.3     1  UNL1        0.0747
     18 C          63.7947   87.0973   15.9682 C.3     1  UNL1        0.0369
     19 C          63.0727   85.8183   16.2729 C.3     1  UNL1        0.0738
     20 N          62.7420   84.8616   15.1660 N.3     1  UNL1       -0.2726
     21 C          63.1332   85.1838   13.7542 C.3     1  UNL1        0.0738
     22 C          63.8552   86.4629   13.4495 C.3     1  UNL1        0.0369
     23 C          62.0200   83.5826   15.4708 C.3     1  UNL1        0.0720
     24 C          62.1868   82.3942   14.5709 C.3     1  UNL1        0.0160
     25 C          61.6091   81.1885   13.8908 C.3     1  UNL1        0.0014
     26 C          63.0533   81.5416   13.6921 C.3     1  UNL1        0.0014
@<TRIPOS>BOND
     1    14    15    1
     2    15    16    1
     3    15     5    1
     4     5     6   ar
     5     6     7   ar
     6     7     1    1
     7     1     2    2
     8     1     3   am
     9     3    17    1
    10    17    18    1
    11    18    19    1
    12    19    20    1
    13    20    23    1
    14    23    24    1
    15    24    25    1
    16    25    26    1
    17    20    21    1
    18    21    22    1
    19     7     8   ar
    20     8     9   ar
    21     9    10   ar
    22    10    11   ar
    23    11    12   ar
    24    12    13   ar
    25    13     5   ar
    26    22    17    1
    27    13     8   ar
    28    26    24    1
    29     3     4    1
@<TRIPOS>MOLECULE
*****
 26 29 0 0 0
SMALL
GASTEIGER

@<TRIPOS>ATOM
      1 C          63.1173   86.5012   12.7909 C.2     1  UNL1        0.2650
      2 O          62.0209   86.1319   11.8363 O.2     1  UNL1       -0.2684
      3 N          63.8790   85.4274   13.5099 N.am    1  UNL1       -0.3011
      4 H          64.5987   85.6698   14.1365 H       1  UNL1        0.1497
      5 C          64.2067   89.9966   14.0796 C.ar    1  UNL1        0.1239
      6 N          64.0361   88.5202   14.2824 N.ar    1  UNL1       -0.2260
      7 C          63.4522   87.9443   13.0265 C.ar    1  UNL1        0.1517
      8 C          63.2618   89.0647   12.0475 C.ar    1  UNL1        0.0872
      9 C          62.7242   89.0938   10.6475 C.ar    1  UNL1        0.0193
     10 C          62.6528   90.3914    9.8984 C.ar    1  UNL1        0.0031
     11 C          63.1192   91.6598   10.5492 C.ar    1  UNL1        0.0191
     12 C          63.6568   91.6307   11.9492 C.ar    1  UNL1        0.0811
     13 N          63.7282   90.3331   12.6983 N.ar    1  UNL1       -0.2921
     14 C          66.0695   91.6482   14.8227 C.3     1  UNL1        0.0079
     15 C          64.7588   90.9663   15.0820 C.3     1  UNL1        0.0573
     16 C          64.0004   91.2541   16.3437 C.3     1  UNL1        0.0079
     17 C          63.5441   83.9844   13.2743 C.3     1  UNL1        0.0747
     18 C          64.1557   83.2519   12.1170 C.3     1  UNL1        0.0369
     19 C          63.8209   81.8089   11.8814 C.3     1  UNL1        0.0738
     20 N          62.8745   81.0984   12.8031 N.3     1  UNL1       -0.2726
     21 C          62.2629   81.8309   13.9604 C.3     1  UNL1        0.0738
     22 C          62.5978   83.2739   14.1960 C.3     1  UNL1        0.0369
     23 C          62.5397   79.6553   12.5674 C.3     1  UNL1        0.0720
     24 C          62.6614   79.0722   11.1908 C.3     1  UNL1        0.0160
     25 C          62.7488   77.8763   10.2896 C.3     1  UNL1        0.0014
     26 C          62.7847   79.2583    9.7075 C.3     1  UNL1        0.0014
@<TRIPOS>BOND
     1    14    15    1
     2    15    16    1
     3    15     5    1
     4     5     6   ar
     5     6     7   ar
     6     7     1    1
     7     1     2    2
     8     1     3   am
     9     3    17    1
    10    17    18    1
    11    18    19    1
    12    19    20    1
    13    20    23    1
    14    23    24    1
    15    24    25    1
    16    25    26    1
    17    20    21    1
    18    21    22    1
    19     7     8   ar
    20     8     9   ar
    21     9    10   ar
    22    10    11   ar
    23    11    12   ar
    24    12    13   ar
    25    13     5   ar
    26    22    17    1
    27    13     8   ar
    28    26    24    1
    29     3     4    1
@<TRIPOS>MOLECULE
*****
 26 29 0 0 0
SMALL
GASTEIGER

@<TRIPOS>ATOM
      1 C          64.1927   88.9058   13.8531 C.2     1  UNL1        0.2650
      2 O          62.8486   88.8375   13.1909 O.2     1  UNL1       -0.2684
      3 N          64.7652   87.6876   14.5153 N.am    1  UNL1       -0.3011
      4 H          65.6474   87.7324   14.9500 H       1  UNL1        0.1497
      5 C          66.4378   91.9998   14.5253 C.ar    1  UNL1        0.1239
      6 N          65.8808   90.6703   14.9403 N.ar    1  UNL1       -0.2260
      7 C          64.9643   90.1921   13.8534 C.ar    1  UNL1        0.1517
      8 C          64.9548   91.2261   12.7667 C.ar    1  UNL1        0.0872
      9 C          64.2346   91.2946   11.4528 C.ar    1  UNL1        0.0193
     10 C          64.4251   92.4804   10.5541 C.ar    1  UNL1        0.0031
     11 C          65.3358   93.5976   10.9694 C.ar    1  UNL1        0.0191
     12 C          66.0560   93.5291   12.2834 C.ar    1  UNL1        0.0811
     13 N          65.8655   92.3433   13.1820 N.ar    1  UNL1       -0.2921
     14 C          67.5677   94.2930   14.9891 C.3     1  UNL1        0.0079
     15 C          67.3984   92.8385   15.3151 C.3     1  UNL1        0.0573
     16 C          68.1899   92.2231   16.4307 C.3     1  UNL1        0.0079
     17 C          63.9936   86.4013   14.5151 C.3     1  UNL1        0.0747
     18 C          63.6166   85.7527   15.8140 C.3     1  UNL1        0.0369
     19 C          62.8450   84.4664   15.8137 C.3     1  UNL1        0.0738
     20 N          62.4504   83.8287   14.5146 N.3     1  UNL1       -0.2726
     21 C          62.8274   84.4773   13.2157 C.3     1  UNL1        0.0738
     22 C          63.5990   85.7636   13.2160 C.3     1  UNL1        0.0369
     23 C          61.6788   82.5424   14.5145 C.3     1  UNL1        0.0720
     24 C          62.1317   81.3961   13.6596 C.3     1  UNL1        0.0160
     25 C          62.3401   79.9234   13.4654 C.3     1  UNL1        0.0014
     26 C          62.7077   80.8834   12.3730 C.3     1  UNL1        0.0014
@<TRIPOS>BOND
     1    14    15    1
     2    15    16    1
     3    15     5    1
     4     5     6   ar
     5     6     7   ar
     6     7     1    1
     7     1     2    2
     8     1     3   am
     9     3    17    1
    10    17    18    1
    11    18    19    1
    12    19    20    1
    13    20    23    1
    14    23    24    1
    15    24    25    1
    16    25    26    1
    17    20    21    1
    18    21    22    1
    19     7     8   ar
    20     8     9   ar
    21     9    10   ar
    22    10    11   ar
    23    11    12   ar
    24    12    13   ar
    25    13     5   ar
    26    22    17    1
    27    13     8   ar
    28    26    24    1
    29     3     4    1
@<TRIPOS>MOLECULE
*****
 26 29 0 0 0
SMALL
GASTEIGER

@<TRIPOS>ATOM
      1 C          63.5647   89.7279   12.0650 C.2     1  UNL1        0.2650
      2 O          63.4447   88.3358   12.6104 O.2     1  UNL1       -0.2684
      3 N          62.9389   90.0732   10.7462 N.am    1  UNL1       -0.3011
      4 H          63.0176   90.9869   10.3881 H       1  UNL1        0.1497
      5 C          65.3360   92.0042   14.6623 C.ar    1  UNL1        0.1239
      6 N          64.5517   90.7726   14.3188 N.ar    1  UNL1       -0.2260
      7 C          64.3103   90.7748   12.8384 C.ar    1  UNL1        0.1517
      8 C          64.9455   92.0077   12.2669 C.ar    1  UNL1        0.0872
      9 C          65.0286   92.5366   10.8658 C.ar    1  UNL1        0.0193
     10 C          65.7456   93.8254   10.5919 C.ar    1  UNL1        0.0031
     11 C          66.3795   94.5851   11.7193 C.ar    1  UNL1        0.0191
     12 C          66.2965   94.0562   13.1204 C.ar    1  UNL1        0.0811
     13 N          65.5795   92.7675   13.3942 N.ar    1  UNL1       -0.2921
     14 C          67.2329   92.7658   16.2661 C.3     1  UNL1        0.0079
     15 C          65.7962   92.4025   16.0333 C.3     1  UNL1        0.0573
     16 C          64.8199   92.4375   17.1715 C.3     1  UNL1        0.0079
     17 C          62.1932   89.0263    9.9728 C.3     1  UNL1        0.0747
     18 C          60.8779   89.3606    9.3340 C.3     1  UNL1        0.0369
     19 C          60.1323   88.3137    8.5607 C.3     1  UNL1        0.0738
     20 N          60.7019   86.9326    8.4262 N.3     1  UNL1       -0.2726
     21 C          62.0172   86.5983    9.0651 C.3     1  UNL1        0.0738
     22 C          62.7629   87.6452    9.8384 C.3     1  UNL1        0.0369
     23 C          59.9562   85.8858    7.6529 C.3     1  UNL1        0.0720
     24 C          60.6997   84.9534    6.7431 C.3     1  UNL1        0.0160
     25 C          60.7013   83.7971    5.7876 C.3     1  UNL1        0.0014
     26 C          61.9862   84.4947    6.1227 C.3     1  UNL1        0.0014
@<TRIPOS>BOND
     1    14    15    1
     2    15    16    1
     3    15     5    1
     4     5     6   ar
     5     6     7   ar
     6     7     1    1
     7     1     2    2
     8     1     3   am
     9     3    17    1
    10    17    18    1
    11    18    19    1
    12    19    20    1
    13    20    23    1
    14    23    24    1
    15    24    25    1
    16    25    26    1
    17    20    21    1
    18    21    22    1
    19     7     8   ar
    20     8     9   ar
    21     9    10   ar
    22    10    11   ar
    23    11    12   ar
    24    12    13   ar
    25    13     5   ar
    26    22    17    1
    27    13     8   ar
    28    26    24    1
    29     3     4    1
@<TRIPOS>MOLECULE
*****
 26 29 0 0 0
SMALL
GASTEIGER

@<TRIPOS>ATOM
      1 C          62.7353   88.8657   11.4211 C.2     1  UNL1        0.2650
      2 O          63.1898   87.9445   12.5140 O.2     1  UNL1       -0.2684
      3 N          63.0303   90.3340   11.5068 N.am    1  UNL1       -0.3011
      4 H          62.7320   90.9387   10.7894 H       1  UNL1        0.1497
      5 C          60.3963   88.0874    8.4230 C.ar    1  UNL1        0.1239
      6 N          60.8395   88.9846    9.5404 N.ar    1  UNL1       -0.2260
      7 C          61.9858   88.3189   10.2424 C.ar    1  UNL1        0.1517
      8 C          62.2510   87.0103    9.5589 C.ar    1  UNL1        0.0872
      9 C          63.2602   85.9305    9.8151 C.ar    1  UNL1        0.0193
     10 C          63.2869   84.7077    8.9468 C.ar    1  UNL1        0.0031
     11 C          62.3045   84.5647    7.8223 C.ar    1  UNL1        0.0191
     12 C          61.2954   85.6444    7.5661 C.ar    1  UNL1        0.0811
     13 N          61.2686   86.8673    8.4344 N.ar    1  UNL1       -0.2921
     14 C          58.1265   87.4055    7.3584 C.3     1  UNL1        0.0079
     15 C          59.2771   88.3622    7.4627 C.3     1  UNL1        0.0573
     16 C          59.3086   89.5935    6.6068 C.3     1  UNL1        0.0079
     17 C          63.7798   90.8809   12.6854 C.3     1  UNL1        0.0747
     18 C          64.8961   91.8605   12.4754 C.3     1  UNL1        0.0369
     19 C          65.6456   92.4073   13.6541 C.3     1  UNL1        0.0738
     20 N          65.2788   91.9745   15.0426 N.3     1  UNL1       -0.2726
     21 C          64.1624   90.9950   15.2526 C.3     1  UNL1        0.0738
     22 C          63.4129   90.4481   14.0740 C.3     1  UNL1        0.0369
     23 C          66.0284   92.5214   16.2212 C.3     1  UNL1        0.0720
     24 C          67.4856   92.8539   16.0949 C.3     1  UNL1        0.0160
     25 C          68.5775   93.8709   15.9421 C.3     1  UNL1        0.0014
     26 C          68.9177   92.4126   16.0287 C.3     1  UNL1        0.0014
@<TRIPOS>BOND
     1    14    15    1
     2    15    16    1
     3    15     5    1
     4     5     6   ar
     5     6     7   ar
     6     7     1    1
     7     1     2    2
     8     1     3   am
     9     3    17    1
    10    17    18    1
    11    18    19    1
    12    19    20    1
    13    20    23    1
    14    23    24    1
    15    24    25    1
    16    25    26    1
    17    20    21    1
    18    21    22    1
    19     7     8   ar
    20     8     9   ar
    21     9    10   ar
    22    10    11   ar
    23    11    12   ar
    24    12    13   ar
    25    13     5   ar
    26    22    17    1
    27    13     8   ar
    28    26    24    1
    29     3     4    1
@<TRIPOS>MOLECULE
*****
 26 29 0 0 0
SMALL
GASTEIGER

@<TRIPOS>ATOM
      1 C          64.1668   89.2349   13.5236 C.2     1  UNL1        0.2650
      2 O          63.4268   89.6604   12.2902 O.2     1  UNL1       -0.2684
      3 N          65.1908   90.1446   14.1351 N.am    1  UNL1       -0.3011
      4 H          65.6765   89.8654   14.9447 H       1  UNL1        0.1497
      5 C          63.5822   85.5102   14.4455 C.ar    1  UNL1        0.1239
      6 N          63.9364   86.5729   13.4479 N.ar    1  UNL1       -0.2260
      7 C          63.8828   87.8998   14.1455 C.ar    1  UNL1        0.1517
      8 C          63.4954   87.6571   15.5741 C.ar    1  UNL1        0.0872
      9 C          63.2878   88.5901   16.7301 C.ar    1  UNL1        0.0193
     10 C          62.8944   88.0463   18.0715 C.ar    1  UNL1        0.0031
     11 C          62.7086   86.5695   18.2570 C.ar    1  UNL1        0.0191
     12 C          62.9162   85.6365   17.1010 C.ar    1  UNL1        0.0811
     13 N          63.3096   86.1803   15.7596 N.ar    1  UNL1       -0.2921
     14 C          64.4527   83.4087   13.1900 C.3     1  UNL1        0.0079
     15 C          63.5126   84.0362   14.1763 C.3     1  UNL1        0.0573
     16 C          62.5032   83.1896   14.8934 C.3     1  UNL1        0.0079
     17 C          65.4748   91.4798   13.5132 C.3     1  UNL1        0.0747
     18 C          66.1916   92.5364   14.3003 C.3     1  UNL1        0.0369
     19 C          66.4756   93.8716   13.6784 C.3     1  UNL1        0.0738
     20 N          66.0427   94.1500   12.2694 N.3     1  UNL1       -0.2726
     21 C          65.3258   93.0933   11.4824 C.3     1  UNL1        0.0738
     22 C          65.0419   91.7582   12.1043 C.3     1  UNL1        0.0369
     23 C          66.3267   95.4852   11.6476 C.3     1  UNL1        0.0720
     24 C          66.9377   95.5609   10.2798 C.3     1  UNL1        0.0160
     25 C          67.6387   94.8973    9.1316 C.3     1  UNL1        0.0014
     26 C          67.2951   96.3556    9.0589 C.3     1  UNL1        0.0014
@<TRIPOS>BOND
     1    14    15    1
     2    15    16    1
     3    15     5    1
     4     5     6   ar
     5     6     7   ar
     6     7     1    1
     7     1     2    2
     8     1     3   am
     9     3    17    1
    10    17    18    1
    11    18    19    1
    12    19    20    1
    13    20    23    1
    14    23    24    1
    15    24    25    1
    16    25    26    1
    17    20    21    1
    18    21    22    1
    19     7     8   ar
    20     8     9   ar
    21     9    10   ar
    22    10    11   ar
    23    11    12   ar
    24    12    13   ar
    25    13     5   ar
    26    22    17    1
    27    13     8   ar
    28    26    24    1
    29     3     4    1
