@<TRIPOS>MOLECULE
*****
 22 24 0 0 0
SMALL
GASTEIGER

@<TRIPOS>ATOM
      1 C          62.0420   85.5632    9.6488 C.ar    1  UNL1        0.0000
      2 C          63.0553   84.8623    8.7933 C.ar    1  UNL1       -0.0000
      3 C          63.9985   83.8710    9.4077 C.ar    1  UNL1        0.0000
      4 C          63.9285   83.5806   10.8777 C.ar    1  UNL1        0.0015
      5 C          62.9153   84.2816   11.7332 C.ar    1  UNL1        0.0172
      6 C          61.9720   85.2729   11.1187 C.ar    1  UNL1        0.0015
      7 C          61.1239   87.9876    9.4766 C.ar    1  UNL1        0.0714
      8 C          60.1807   88.9789    8.8621 C.ar    1  UNL1        0.0039
      9 C          59.2123   88.5371    7.8053 C.ar    1  UNL1       -0.0001
     10 C          59.1871   87.1041    7.3629 C.ar    1  UNL1       -0.0000
     11 C          60.1303   86.1128    7.9774 C.ar    1  UNL1       -0.0001
     12 C          61.0987   86.5546    9.0343 C.ar    1  UNL1        0.0039
     13 F          63.0608   88.8712   11.5904 F       1  UNL1       -0.1659
     14 C          62.0924   88.4294   10.5335 C.3     1  UNL1        0.4186
     15 F          63.1529   88.6065    9.4876 F       1  UNL1       -0.1659
     16 F          61.0318   88.2523   11.5794 F       1  UNL1       -0.1659
     17 C          62.8452   83.9913   13.2032 C.ar    1  UNL1        0.0772
     18 C          63.2452   82.7077   13.8684 C.ar    1  UNL1        0.1175
     19 N          63.0101   82.8567   15.3424 N.ar    1  UNL1       -0.2225
     20 C          62.4648   84.2323   15.5880 C.ar    1  UNL1        0.1750
     21 N          62.3629   84.9335   14.2659 N.ar    1  UNL1       -0.3349
     22 H          62.0367   85.8510   14.1211 H       1  UNL1        0.1675
@<TRIPOS>BOND
     1    13    14    1
     2    14    15    1
     3    14    16    1
     4    14     7    1
     5     7     8   ar
     6     8     9   ar
     7     9    10   ar
     8    10    11   ar
     9    11    12   ar
    10    12     1    1
    11     1     2   ar
    12     2     3   ar
    13     3     4   ar
    14     4     5   ar
    15     5    17    1
    16    17    18   ar
    17    18    19   ar
    18    19    20   ar
    19    20    21   ar
    20     5     6   ar
    21    12     7   ar
    22     6     1   ar
    23    21    17   ar
    24    21    22    1
@<TRIPOS>MOLECULE
*****
 22 24 0 0 0
SMALL
GASTEIGER

@<TRIPOS>ATOM
      1 C          62.7728   84.1814   10.9732 C.ar    1  UNL1        0.0000
      2 C          63.3768   84.0593    9.6056 C.ar    1  UNL1       -0.0000
      3 C          63.2428   85.1849    8.6233 C.ar    1  UNL1        0.0000
      4 C          62.5047   86.4327    9.0086 C.ar    1  UNL1        0.0015
      5 C          61.9007   86.5548   10.3762 C.ar    1  UNL1        0.0172
      6 C          62.0347   85.4291   11.3585 C.ar    1  UNL1        0.0015
      7 C          63.3790   83.3314   13.3523 C.ar    1  UNL1        0.0714
      8 C          63.5130   82.2057   14.3345 C.ar    1  UNL1        0.0039
      9 C          63.1750   80.8043   13.9200 C.ar    1  UNL1       -0.0001
     10 C          62.7029   80.5286   12.5232 C.ar    1  UNL1       -0.0000
     11 C          62.5688   81.6543   11.5410 C.ar    1  UNL1       -0.0001
     12 C          62.9069   83.0557   11.9555 C.ar    1  UNL1        0.0039
     13 F          64.0551   86.1341   14.1814 F       1  UNL1       -0.1659
     14 C          63.7170   84.7328   13.7669 C.3     1  UNL1        0.4186
     15 F          62.3495   84.8861   14.3638 F       1  UNL1       -0.1659
     16 F          65.0846   84.5794   13.1700 F       1  UNL1       -0.1659
     17 C          61.1626   87.8025   10.7614 C.ar    1  UNL1        0.0772
     18 C          61.4131   89.1782   10.2187 C.ar    1  UNL1        0.1175
     19 N          60.4497   90.1195   10.8789 N.ar    1  UNL1       -0.2225
     20 C          59.6038   89.3255   11.8297 C.ar    1  UNL1        0.1750
     21 N          60.0444   87.8935   11.7571 N.ar    1  UNL1       -0.3349
     22 H          59.6661   87.1448   12.2724 H       1  UNL1        0.1675
@<TRIPOS>BOND
     1    13    14    1
     2    14    15    1
     3    14    16    1
     4    14     7    1
     5     7     8   ar
     6     8     9   ar
     7     9    10   ar
     8    10    11   ar
     9    11    12   ar
    10    12     1    1
    11     1     2   ar
    12     2     3   ar
    13     3     4   ar
    14     4     5   ar
    15     5    17    1
    16    17    18   ar
    17    18    19   ar
    18    19    20   ar
    19    20    21   ar
    20     5     6   ar
    21    12     7   ar
    22     6     1   ar
    23    21    17   ar
    24    21    22    1
@<TRIPOS>MOLECULE
*****
 22 24 0 0 0
SMALL
GASTEIGER

@<TRIPOS>ATOM
      1 C          62.3706   86.4640   10.1750 C.ar    1  UNL1        0.0000
      2 C          62.8313   86.0197    8.8184 C.ar    1  UNL1       -0.0000
      3 C          63.3656   84.6315    8.6252 C.ar    1  UNL1        0.0000
      4 C          63.4393   83.6876    9.7887 C.ar    1  UNL1        0.0015
      5 C          62.9786   84.1319   11.1453 C.ar    1  UNL1        0.0172
      6 C          62.4442   85.5202   11.3384 C.ar    1  UNL1        0.0015
      7 C          60.6234   88.3015    9.6084 C.ar    1  UNL1        0.0714
      8 C          60.0891   89.6897    9.8015 C.ar    1  UNL1        0.0039
      9 C          60.7676   90.6287   10.7543 C.ar    1  UNL1       -0.0001
     10 C          61.9805   90.1795   11.5140 C.ar    1  UNL1       -0.0000
     11 C          62.5148   88.7913   11.3209 C.ar    1  UNL1       -0.0001
     12 C          61.8362   87.8523   10.3681 C.ar    1  UNL1        0.0039
     13 F          59.2662   86.4235    7.7028 F       1  UNL1       -0.1659
     14 C          59.9448   87.3625    8.6556 C.3     1  UNL1        0.4186
     15 F          59.6832   86.4079    9.7827 F       1  UNL1       -0.1659
     16 F          60.2064   88.3171    7.5285 F       1  UNL1       -0.1659
     17 C          63.0522   83.1880   12.3087 C.ar    1  UNL1        0.0772
     18 C          63.7910   83.4266   13.5922 C.ar    1  UNL1        0.1175
     19 N          63.5954   82.2259   14.4697 N.ar    1  UNL1       -0.2225
     20 C          62.7357   81.2452   13.7285 C.ar    1  UNL1        0.1750
     21 N          62.4000   81.8399   12.3930 N.ar    1  UNL1       -0.3349
     22 H          61.8485   81.4192   11.6944 H       1  UNL1        0.1675
@<TRIPOS>BOND
     1    13    14    1
     2    14    15    1
     3    14    16    1
     4    14     7    1
     5     7     8   ar
     6     8     9   ar
     7     9    10   ar
     8    10    11   ar
     9    11    12   ar
    10    12     1    1
    11     1     2   ar
    12     2     3   ar
    13     3     4   ar
    14     4     5   ar
    15     5    17    1
    16    17    18   ar
    17    18    19   ar
    18    19    20   ar
    19    20    21   ar
    20     5     6   ar
    21    12     7   ar
    22     6     1   ar
    23    21    17   ar
    24    21    22    1
@<TRIPOS>MOLECULE
*****
 22 24 0 0 0
SMALL
GASTEIGER

@<TRIPOS>ATOM
      1 C          61.8867   89.3289   10.1511 C.ar    1  UNL1        0.0000
      2 C          62.5897   90.5325    9.5970 C.ar    1  UNL1       -0.0000
      3 C          63.5005   91.3391   10.4744 C.ar    1  UNL1        0.0000
      4 C          63.7084   90.9421   11.9059 C.ar    1  UNL1        0.0015
      5 C          63.0054   89.7384   12.4600 C.ar    1  UNL1        0.0172
      6 C          62.0946   88.9318   11.5826 C.ar    1  UNL1        0.0015
      7 C          61.0336   87.0239    9.3090 C.ar    1  UNL1        0.0714
      8 C          60.1228   86.2173    8.4316 C.ar    1  UNL1        0.0039
      9 C          59.1542   86.9093    7.5189 C.ar    1  UNL1       -0.0001
     10 C          59.0964   88.4077    7.4836 C.ar    1  UNL1       -0.0000
     11 C          60.0073   89.2142    8.3610 C.ar    1  UNL1       -0.0001
     12 C          60.9759   88.5223    9.2737 C.ar    1  UNL1        0.0039
     13 F          62.9708   85.6400   11.1345 F       1  UNL1       -0.1659
     14 C          62.0022   86.3319   10.2218 C.3     1  UNL1        0.4186
     15 F          60.9278   86.1972   11.2598 F       1  UNL1       -0.1659
     16 F          63.0766   86.4666    9.1837 F       1  UNL1       -0.1659
     17 C          63.2133   89.3414   13.8915 C.ar    1  UNL1        0.0772
     18 C          63.9975   88.1568   14.3729 C.ar    1  UNL1        0.1175
     19 N          63.9423   88.1424   15.8718 N.ar    1  UNL1       -0.2225
     20 C          63.1239   89.3182   16.3167 C.ar    1  UNL1        0.1750
     21 N          62.6734   90.0592   15.0928 N.ar    1  UNL1       -0.3349
     22 H          62.1204   90.8736   15.0802 H       1  UNL1        0.1675
@<TRIPOS>BOND
     1    13    14    1
     2    14    15    1
     3    14    16    1
     4    14     7    1
     5     7     8   ar
     6     8     9   ar
     7     9    10   ar
     8    10    11   ar
     9    11    12   ar
    10    12     1    1
    11     1     2   ar
    12     2     3   ar
    13     3     4   ar
    14     4     5   ar
    15     5    17    1
    16    17    18   ar
    17    18    19   ar
    18    19    20   ar
    19    20    21   ar
    20     5     6   ar
    21    12     7   ar
    22     6     1   ar
    23    21    17   ar
    24    21    22    1
@<TRIPOS>MOLECULE
*****
 22 24 0 0 0
SMALL
GASTEIGER

@<TRIPOS>ATOM
      1 C          62.6596   84.7596   12.5254 C.ar    1  UNL1        0.0000
      2 C          63.5195   85.6933   13.3246 C.ar    1  UNL1       -0.0000
      3 C          63.5690   87.1513   12.9755 C.ar    1  UNL1        0.0000
      4 C          62.7585   87.6756   11.8273 C.ar    1  UNL1        0.0015
      5 C          61.8986   86.7418   11.0282 C.ar    1  UNL1        0.0172
      6 C          61.8491   85.2838   11.3773 C.ar    1  UNL1        0.0015
      7 C          63.2939   82.2964   11.9959 C.ar    1  UNL1        0.0714
      8 C          63.2444   80.8384   12.3450 C.ar    1  UNL1        0.0039
      9 C          62.5111   80.3857   13.5727 C.ar    1  UNL1       -0.0001
     10 C          61.8274   81.3908   14.4514 C.ar    1  UNL1       -0.0000
     11 C          61.8769   82.8488   14.1023 C.ar    1  UNL1       -0.0001
     12 C          62.6101   83.3015   12.8745 C.ar    1  UNL1        0.0039
     13 F          64.7604   83.2019    9.5404 F       1  UNL1       -0.1659
     14 C          64.0271   82.7491   10.7681 C.3     1  UNL1        0.4186
     15 F          62.9706   82.1236    9.9065 F       1  UNL1       -0.1659
     16 F          65.0837   83.3747   11.6298 F       1  UNL1       -0.1659
     17 C          61.0881   87.2660    9.8800 C.ar    1  UNL1        0.0772
     18 C          60.8788   88.7109    9.5356 C.ar    1  UNL1        0.1175
     19 N          60.0060   88.7753    8.3174 N.ar    1  UNL1       -0.2225
     20 C          59.6760   87.3701    7.9089 C.ar    1  UNL1        0.1750
     21 N          60.3448   86.4374    8.8746 N.ar    1  UNL1       -0.3349
     22 H          60.3032   85.4540    8.8525 H       1  UNL1        0.1675
@<TRIPOS>BOND
     1    13    14    1
     2    14    15    1
     3    14    16    1
     4    14     7    1
     5     7     8   ar
     6     8     9   ar
     7     9    10   ar
     8    10    11   ar
     9    11    12   ar
    10    12     1    1
    11     1     2   ar
    12     2     3   ar
    13     3     4   ar
    14     4     5   ar
    15     5    17    1
    16    17    18   ar
    17    18    19   ar
    18    19    20   ar
    19    20    21   ar
    20     5     6   ar
    21    12     7   ar
    22     6     1   ar
    23    21    17   ar
    24    21    22    1
@<TRIPOS>MOLECULE
*****
 22 24 0 0 0
SMALL
GASTEIGER

@<TRIPOS>ATOM
      1 C          63.1649   84.6883   11.2265 C.ar    1  UNL1        0.0000
      2 C          63.9067   83.8721   10.2099 C.ar    1  UNL1       -0.0000
      3 C          63.6742   84.1052    8.7465 C.ar    1  UNL1        0.0000
      4 C          62.7000   85.1546    8.2996 C.ar    1  UNL1        0.0015
      5 C          61.9582   85.9708    9.3162 C.ar    1  UNL1        0.0172
      6 C          62.1906   85.7377   10.7797 C.ar    1  UNL1        0.0015
      7 C          63.3976   83.0582   13.2361 C.ar    1  UNL1        0.0714
      8 C          63.6301   82.8251   14.6995 C.ar    1  UNL1        0.0039
      9 C          63.8623   83.9890   15.6167 C.ar    1  UNL1       -0.0001
     10 C          63.8620   85.3860   15.0706 C.ar    1  UNL1       -0.0000
     11 C          63.6295   85.6191   13.6072 C.ar    1  UNL1       -0.0001
     12 C          63.3973   84.4552   12.6899 C.ar    1  UNL1        0.0039
     13 F          62.9333   80.7303   11.4016 F       1  UNL1       -0.1659
     14 C          63.1654   81.8943   12.3188 C.3     1  UNL1        0.4186
     15 F          61.6846   82.1126   12.4166 F       1  UNL1       -0.1659
     16 F          64.6462   81.6759   12.2211 F       1  UNL1       -0.1659
     17 C          60.9839   87.0202    8.8694 C.ar    1  UNL1        0.0772
     18 C          59.8114   86.8043    7.9590 C.ar    1  UNL1        0.1175
     19 N          59.1140   88.1204    7.7815 N.ar    1  UNL1       -0.2225
     20 C          59.8554   89.1496    8.5821 C.ar    1  UNL1        0.1750
     21 N          61.0111   88.4696    9.2545 N.ar    1  UNL1       -0.3349
     22 H          61.6715   88.8993    9.8448 H       1  UNL1        0.1675
@<TRIPOS>BOND
     1    13    14    1
     2    14    15    1
     3    14    16    1
     4    14     7    1
     5     7     8   ar
     6     8     9   ar
     7     9    10   ar
     8    10    11   ar
     9    11    12   ar
    10    12     1    1
    11     1     2   ar
    12     2     3   ar
    13     3     4   ar
    14     4     5   ar
    15     5    17    1
    16    17    18   ar
    17    18    19   ar
    18    19    20   ar
    19    20    21   ar
    20     5     6   ar
    21    12     7   ar
    22     6     1   ar
    23    21    17   ar
    24    21    22    1
@<TRIPOS>MOLECULE
*****
 22 24 0 0 0
SMALL
GASTEIGER

@<TRIPOS>ATOM
      1 C          63.1320   84.4666   13.3739 C.ar    1  UNL1        0.0000
      2 C          64.0345   84.9781   14.4573 C.ar    1  UNL1       -0.0000
      3 C          64.3959   86.4330   14.5077 C.ar    1  UNL1        0.0000
      4 C          63.8547   87.3765   13.4747 C.ar    1  UNL1        0.0015
      5 C          62.9521   86.8650   12.3913 C.ar    1  UNL1        0.0172
      6 C          62.5908   85.4100   12.3409 C.ar    1  UNL1        0.0015
      7 C          63.2587   82.1563   12.1919 C.ar    1  UNL1        0.0714
      8 C          62.8973   80.7014   12.1416 C.ar    1  UNL1        0.0039
      9 C          62.0479   80.1017   13.2227 C.ar    1  UNL1       -0.0001
     10 C          61.5599   80.9569   14.3542 C.ar    1  UNL1       -0.0000
     11 C          61.9213   82.4118   14.4046 C.ar    1  UNL1       -0.0001
     12 C          62.7706   83.0116   13.3235 C.ar    1  UNL1        0.0039
     13 F          64.9574   83.3558   10.0296 F       1  UNL1       -0.1659
     14 C          64.1080   82.7561   11.1108 C.3     1  UNL1        0.4186
     15 F          65.3169   82.6283   11.9896 F       1  UNL1       -0.1659
     16 F          62.8992   82.8839   10.2320 F       1  UNL1       -0.1659
     17 C          62.4109   87.8084   11.3584 C.ar    1  UNL1        0.0772
     18 C          61.4983   87.4454   10.2246 C.ar    1  UNL1        0.1175
     19 N          61.2106   88.6931    9.4433 N.ar    1  UNL1       -0.2225
     20 C          61.9455   89.8273   10.0943 C.ar    1  UNL1        0.1750
     21 N          62.6873   89.2805   11.2778 N.ar    1  UNL1       -0.3349
     22 H          63.2558   89.7971   11.8936 H       1  UNL1        0.1675
@<TRIPOS>BOND
     1    13    14    1
     2    14    15    1
     3    14    16    1
     4    14     7    1
     5     7     8   ar
     6     8     9   ar
     7     9    10   ar
     8    10    11   ar
     9    11    12   ar
    10    12     1    1
    11     1     2   ar
    12     2     3   ar
    13     3     4   ar
    14     4     5   ar
    15     5    17    1
    16    17    18   ar
    17    18    19   ar
    18    19    20   ar
    19    20    21   ar
    20     5     6   ar
    21    12     7   ar
    22     6     1   ar
    23    21    17   ar
    24    21    22    1
@<TRIPOS>MOLECULE
*****
 22 24 0 0 0
SMALL
GASTEIGER

@<TRIPOS>ATOM
      1 C          62.6777   85.2234   12.1609 C.ar    1  UNL1        0.0000
      2 C          63.4364   86.2778   12.9110 C.ar    1  UNL1       -0.0000
      3 C          63.2940   87.7207   12.5267 C.ar    1  UNL1        0.0000
      4 C          62.3928   88.1093   11.3923 C.ar    1  UNL1        0.0015
      5 C          61.6341   87.0550   10.6421 C.ar    1  UNL1        0.0172
      6 C          61.7766   85.6120   11.0264 C.ar    1  UNL1        0.0015
      7 C          62.9583   83.3991   13.9893 C.ar    1  UNL1        0.0714
      8 C          63.1007   81.9562   14.3735 C.ar    1  UNL1        0.0039
      9 C          63.1051   80.8947   13.3137 C.ar    1  UNL1       -0.0001
     10 C          62.9671   81.2761   11.8696 C.ar    1  UNL1       -0.0000
     11 C          62.8246   82.7190   11.4854 C.ar    1  UNL1       -0.0001
     12 C          62.8202   83.7805   12.5452 C.ar    1  UNL1        0.0039
     13 F          62.9495   85.5221   16.1089 F       1  UNL1       -0.1659
     14 C          62.9539   84.4606   15.0491 C.3     1  UNL1        0.4186
     15 F          64.4527   84.4212   15.0948 F       1  UNL1       -0.1659
     16 F          61.4551   84.5000   15.0034 F       1  UNL1       -0.1659
     17 C          60.7330   87.4435    9.5077 C.ar    1  UNL1        0.0772
     18 C          60.4816   88.8395    9.0197 C.ar    1  UNL1        0.1175
     19 N          59.5183   88.7630    7.8724 N.ar    1  UNL1       -0.2225
     20 C          59.1743   87.3198    7.6514 C.ar    1  UNL1        0.1750
     21 N          59.9250   86.5043    8.6621 N.ar    1  UNL1       -0.3349
     22 H          59.8931   85.5246    8.7542 H       1  UNL1        0.1675
@<TRIPOS>BOND
     1    13    14    1
     2    14    15    1
     3    14    16    1
     4    14     7    1
     5     7     8   ar
     6     8     9   ar
     7     9    10   ar
     8    10    11   ar
     9    11    12   ar
    10    12     1    1
    11     1     2   ar
    12     2     3   ar
    13     3     4   ar
    14     4     5   ar
    15     5    17    1
    16    17    18   ar
    17    18    19   ar
    18    19    20   ar
    19    20    21   ar
    20     5     6   ar
    21    12     7   ar
    22     6     1   ar
    23    21    17   ar
    24    21    22    1
@<TRIPOS>MOLECULE
*****
 22 24 0 0 0
SMALL
GASTEIGER

@<TRIPOS>ATOM
      1 C          62.1372   87.0505   11.1292 C.ar    1  UNL1        0.0000
      2 C          62.4615   85.7777   11.8537 C.ar    1  UNL1       -0.0000
      3 C          63.3267   85.8114   13.0785 C.ar    1  UNL1        0.0000
      4 C          63.8678   87.1180   13.5788 C.ar    1  UNL1        0.0015
      5 C          63.5435   88.3908   12.8543 C.ar    1  UNL1        0.0172
      6 C          62.6782   88.3570   11.6295 C.ar    1  UNL1        0.0015
      7 C          60.2141   88.0613    9.7044 C.ar    1  UNL1        0.0714
      8 C          59.3488   88.0275    8.4796 C.ar    1  UNL1        0.0039
      9 C          59.5414   86.9492    7.4548 C.ar    1  UNL1       -0.0001
     10 C          60.5992   85.9047    7.6548 C.ar    1  UNL1       -0.0000
     11 C          61.4644   85.9385    8.8796 C.ar    1  UNL1       -0.0001
     12 C          61.2719   87.0168    9.9044 C.ar    1  UNL1        0.0039
     13 F          59.8290   90.2179   11.7540 F       1  UNL1       -0.1659
     14 C          60.0216   89.1396   10.7292 C.3     1  UNL1        0.4186
     15 F          60.7001   90.1228    9.8221 F       1  UNL1       -0.1659
     16 F          59.3430   88.1563   11.6363 F       1  UNL1       -0.1659
     17 C          64.0846   89.6973   13.3546 C.ar    1  UNL1        0.0772
     18 C          63.9449   91.0274   12.6755 C.ar    1  UNL1        0.1175
     19 N          64.6342   92.0553   13.5230 N.ar    1  UNL1       -0.2225
     20 C          65.2000   91.3603   14.7260 C.ar    1  UNL1        0.1750
     21 N          64.8602   89.9030   14.6219 N.ar    1  UNL1       -0.3349
     22 H          65.1037   89.2042   15.2713 H       1  UNL1        0.1675
@<TRIPOS>BOND
     1    13    14    1
     2    14    15    1
     3    14    16    1
     4    14     7    1
     5     7     8   ar
     6     8     9   ar
     7     9    10   ar
     8    10    11   ar
     9    11    12   ar
    10    12     1    1
    11     1     2   ar
    12     2     3   ar
    13     3     4   ar
    14     4     5   ar
    15     5    17    1
    16    17    18   ar
    17    18    19   ar
    18    19    20   ar
    19    20    21   ar
    20     5     6   ar
    21    12     7   ar
    22     6     1   ar
    23    21    17   ar
    24    21    22    1
