@<TRIPOS>MOLECULE
*****
 34 38 0 0 0
SMALL
GASTEIGER

@<TRIPOS>ATOM
      1 O          63.3567   87.3103   12.9018 O.2     1  UNL1       -0.2698
      2 C          62.7218   86.5302   11.7889 C.2     1  UNL1        0.2507
      3 N          61.6822   87.1738   10.9200 N.am    1  UNL1       -0.2723
      4 C          61.0473   86.3938    9.8072 C.3     1  UNL1        0.1257
      5 C          60.0076   87.0374    8.9382 C.3     1  UNL1        0.1637
      6 O          59.6030   88.4610    9.1822 O.3     1  UNL1       -0.3502
      7 C          60.2379   89.2410   10.2950 C.3     1  UNL1        0.1622
      8 C          61.2774   88.5975   11.1639 C.3     1  UNL1        0.1097
      9 C          63.1265   85.1066   11.5450 C.ar    1  UNL1        0.0738
     10 C          63.2944   84.6046   10.1415 C.ar    1  UNL1        0.0061
     11 C          63.6991   83.1810    9.8976 C.ar    1  UNL1        0.0011
     12 C          63.9359   82.2594   11.0571 C.ar    1  UNL1        0.0130
     13 C          63.7680   82.7614   12.4606 C.ar    1  UNL1        0.0771
     14 CL         64.0047   81.8397   13.6202 Cl      1  UNL1       -0.0806
     15 C          63.3632   84.1850   12.7046 C.ar    1  UNL1        0.1177
     16 N          63.1953   84.6870   14.1080 N.ar    1  UNL1       -0.1468
     17 N          61.9263   84.6623   14.9074 N.ar    1  UNL1       -0.1447
     18 C          62.2135   85.2619   16.2520 C.ar    1  UNL1        0.1446
     19 C          63.6602   85.6572   16.2837 C.ar    1  UNL1        0.1446
     20 N          64.2669   85.3019   14.9587 N.ar    1  UNL1       -0.1447
     21 C          61.9123   89.3775   12.2768 C.3     1  UNL1        0.0510
     22 C          63.0124   90.3521   11.9770 C.ar    1  UNL1        0.0071
     23 C          63.9969   90.7239   13.0458 C.ar    1  UNL1        0.0011
     24 C          65.0971   91.6986   12.7460 C.ar    1  UNL1        0.0356
     25 C          65.2127   92.3014   11.3773 C.ar    1  UNL1        0.0053
     26 C          64.2281   91.9295   10.3084 C.ar    1  UNL1        0.0294
     27 C          63.1280   90.9549   10.6083 C.ar    1  UNL1        0.1362
     28 F          62.1435   90.5831    9.5394 F       1  UNL1       -0.2045
     29 C          66.0815   92.0704   13.8149 C.ar    1  UNL1        0.1622
     30 N          67.5464   92.1292   13.4977 N.ar    1  UNL1       -0.2250
     31 C          68.5309   92.5011   14.5665 C.ar    1  UNL1        0.1022
     32 C          68.0505   92.8141   15.9527 C.ar    1  UNL1        0.0414
     33 C          66.5856   92.7552   16.2699 C.ar    1  UNL1        0.1022
     34 N          65.6011   92.3834   15.2009 N.ar    1  UNL1       -0.2250
@<TRIPOS>BOND
     1     1     2    2
     2     2     9    1
     3     9    10   ar
     4    10    11   ar
     5    11    12   ar
     6    12    13   ar
     7    13    14    1
     8    13    15   ar
     9    15    16    1
    10    16    17   ar
    11    17    18   ar
    12    18    19   ar
    13    19    20   ar
    14     2     3   am
    15     3     4    1
    16     4     5    1
    17     5     6    1
    18     6     7    1
    19     7     8    1
    20     8    21    1
    21    21    22    1
    22    22    23   ar
    23    23    24   ar
    24    24    29    1
    25    29    30   ar
    26    30    31   ar
    27    31    32   ar
    28    32    33   ar
    29    33    34   ar
    30    24    25   ar
    31    25    26   ar
    32    26    27   ar
    33    27    28    1
    34    15     9   ar
    35    20    16   ar
    36     8     3    1
    37    27    22   ar
    38    34    29   ar
@<TRIPOS>MOLECULE
*****
 34 38 0 0 0
SMALL
GASTEIGER

@<TRIPOS>ATOM
      1 O          63.5194   87.4975   13.5287 O.2     1  UNL1       -0.2698
      2 C          62.9563   87.1150   12.1921 C.2     1  UNL1        0.2507
      3 N          62.2549   88.1410   11.3523 N.am    1  UNL1       -0.2723
      4 C          61.6918   87.7584   10.0156 C.3     1  UNL1        0.1257
      5 C          60.9903   88.7845    9.1758 C.3     1  UNL1        0.1637
      6 O          60.8520   90.1930    9.6726 O.3     1  UNL1       -0.3502
      7 C          61.4151   90.5756   11.0093 C.3     1  UNL1        0.1622
      8 C          62.1165   89.5496   11.8491 C.3     1  UNL1        0.1097
      9 C          63.0946   85.7064   11.6953 C.ar    1  UNL1        0.0738
     10 C          63.1299   85.4311   10.2212 C.ar    1  UNL1        0.0061
     11 C          63.2683   84.0226    9.7243 C.ar    1  UNL1        0.0011
     12 C          63.3713   82.8893   10.7016 C.ar    1  UNL1        0.0130
     13 C          63.3360   83.1646   12.1757 C.ar    1  UNL1        0.0771
     14 CL         63.4391   82.0313   13.1530 Cl      1  UNL1       -0.0806
     15 C          63.1977   84.5731   12.6725 C.ar    1  UNL1        0.1177
     16 N          63.1624   84.8484   14.1466 N.ar    1  UNL1       -0.1468
     17 N          64.3375   85.2164   15.0032 N.ar    1  UNL1       -0.1447
     18 C          63.8471   85.3994   16.4090 C.ar    1  UNL1        0.1446
     19 C          62.3690   85.1446   16.4212 C.ar    1  UNL1        0.1446
     20 N          61.9458   84.8040   15.0230 N.ar    1  UNL1       -0.1447
     21 C          62.6796   89.9321   13.1857 C.3     1  UNL1        0.0510
     22 C          63.9972   90.6440   13.2685 C.ar    1  UNL1        0.0071
     23 C          64.4628   91.4955   12.1248 C.ar    1  UNL1        0.0011
     24 C          65.7805   92.2075   12.2076 C.ar    1  UNL1        0.0356
     25 C          66.6326   92.0680   13.4342 C.ar    1  UNL1        0.0053
     26 C          66.1670   91.2164   14.5779 C.ar    1  UNL1        0.0294
     27 C          64.8493   90.5045   14.4951 C.ar    1  UNL1        0.1362
     28 F          64.3838   89.6530   15.6388 F       1  UNL1       -0.2045
     29 C          66.2461   93.0590   11.0639 C.ar    1  UNL1        0.1622
     30 N          67.3328   92.5656   10.1552 N.ar    1  UNL1       -0.2250
     31 C          67.7983   93.4171    9.0115 C.ar    1  UNL1        0.1022
     32 C          67.1771   94.7621    8.7763 C.ar    1  UNL1        0.0414
     33 C          66.0904   95.2555    9.6850 C.ar    1  UNL1        0.1022
     34 N          65.6249   94.4039   10.8288 N.ar    1  UNL1       -0.2250
@<TRIPOS>BOND
     1     1     2    2
     2     2     9    1
     3     9    10   ar
     4    10    11   ar
     5    11    12   ar
     6    12    13   ar
     7    13    14    1
     8    13    15   ar
     9    15    16    1
    10    16    17   ar
    11    17    18   ar
    12    18    19   ar
    13    19    20   ar
    14     2     3   am
    15     3     4    1
    16     4     5    1
    17     5     6    1
    18     6     7    1
    19     7     8    1
    20     8    21    1
    21    21    22    1
    22    22    23   ar
    23    23    24   ar
    24    24    29    1
    25    29    30   ar
    26    30    31   ar
    27    31    32   ar
    28    32    33   ar
    29    33    34   ar
    30    24    25   ar
    31    25    26   ar
    32    26    27   ar
    33    27    28    1
    34    15     9   ar
    35    20    16   ar
    36     8     3    1
    37    27    22   ar
    38    34    29   ar
@<TRIPOS>MOLECULE
*****
 34 38 0 0 0
SMALL
GASTEIGER

@<TRIPOS>ATOM
      1 O          62.4842   90.1620   11.6477 O.2     1  UNL1       -0.2698
      2 C          62.6546   88.6717   11.6583 C.2     1  UNL1        0.2507
      3 N          63.3506   88.0045   12.8073 N.am    1  UNL1       -0.2723
      4 C          63.5209   86.5142   12.8179 C.3     1  UNL1        0.1257
      5 C          64.2169   85.8470   13.9670 C.3     1  UNL1        0.1637
      6 O          64.7425   86.6700   15.1056 O.3     1  UNL1       -0.3502
      7 C          64.5722   88.1603   15.0950 C.3     1  UNL1        0.1622
      8 C          63.8762   88.8275   13.9460 C.3     1  UNL1        0.1097
      9 C          62.1289   87.8487   10.5197 C.ar    1  UNL1        0.0738
     10 C          63.0364   86.8925    9.8038 C.ar    1  UNL1        0.0061
     11 C          62.5108   86.0695    8.6653 C.ar    1  UNL1        0.0011
     12 C          61.0778   86.2026    8.2425 C.ar    1  UNL1        0.0130
     13 C          60.1704   87.1587    8.9584 C.ar    1  UNL1        0.0771
     14 CL         58.7373   87.2918    8.5356 Cl      1  UNL1       -0.0806
     15 C          60.6959   87.9818   10.0969 C.ar    1  UNL1        0.1177
     16 N          59.7885   88.9379   10.8127 N.ar    1  UNL1       -0.1468
     17 N          59.5614   90.3760   10.4517 N.ar    1  UNL1       -0.1447
     18 C          58.5814   90.9507   11.4311 C.ar    1  UNL1        0.1446
     19 C          58.2028   89.8678   12.3975 C.ar    1  UNL1        0.1446
     20 N          58.9488   88.6238   12.0153 N.ar    1  UNL1       -0.1447
     21 C          63.7058   90.3178   13.9354 C.3     1  UNL1        0.0510
     22 C          64.9110   91.2102   13.9030 C.ar    1  UNL1        0.0071
     23 C          65.4919   91.6384   12.5880 C.ar    1  UNL1        0.0011
     24 C          66.6971   92.5309   12.5555 C.ar    1  UNL1        0.0356
     25 C          67.3213   92.9952   13.8380 C.ar    1  UNL1        0.0053
     26 C          66.7404   92.5669   15.1530 C.ar    1  UNL1        0.0294
     27 C          65.5352   91.6745   15.1855 C.ar    1  UNL1        0.1362
     28 F          64.9543   91.2463   16.5004 F       1  UNL1       -0.2045
     29 C          67.2780   92.9591   11.2406 C.ar    1  UNL1        0.1622
     30 N          68.2031   92.0432   10.4954 N.ar    1  UNL1       -0.2250
     31 C          68.7840   92.4714    9.1805 C.ar    1  UNL1        0.1022
     32 C          68.4398   93.8156    8.6106 C.ar    1  UNL1        0.0414
     33 C          67.5147   94.7315    9.3557 C.ar    1  UNL1        0.1022
     34 N          66.9338   94.3033   10.6708 N.ar    1  UNL1       -0.2250
@<TRIPOS>BOND
     1     1     2    2
     2     2     9    1
     3     9    10   ar
     4    10    11   ar
     5    11    12   ar
     6    12    13   ar
     7    13    14    1
     8    13    15   ar
     9    15    16    1
    10    16    17   ar
    11    17    18   ar
    12    18    19   ar
    13    19    20   ar
    14     2     3   am
    15     3     4    1
    16     4     5    1
    17     5     6    1
    18     6     7    1
    19     7     8    1
    20     8    21    1
    21    21    22    1
    22    22    23   ar
    23    23    24   ar
    24    24    29    1
    25    29    30   ar
    26    30    31   ar
    27    31    32   ar
    28    32    33   ar
    29    33    34   ar
    30    24    25   ar
    31    25    26   ar
    32    26    27   ar
    33    27    28    1
    34    15     9   ar
    35    20    16   ar
    36     8     3    1
    37    27    22   ar
    38    34    29   ar
@<TRIPOS>MOLECULE
*****
 34 38 0 0 0
SMALL
GASTEIGER

@<TRIPOS>ATOM
      1 O          63.8638   88.5839   12.0887 O.2     1  UNL1       -0.2698
      2 C          63.7190   87.8880   13.4096 C.2     1  UNL1        0.2507
      3 N          63.5313   88.6899   14.6632 N.am    1  UNL1       -0.2723
      4 C          63.3864   87.9940   15.9841 C.3     1  UNL1        0.1257
      5 C          63.1987   88.7960   17.2377 C.3     1  UNL1        0.1637
      6 O          63.1558   90.2938   17.1705 O.3     1  UNL1       -0.3502
      7 C          63.3006   90.9897   15.8496 C.3     1  UNL1        0.1622
      8 C          63.4884   90.1878   14.5960 C.3     1  UNL1        0.1097
      9 C          63.7619   86.3901   13.4767 C.ar    1  UNL1        0.0738
     10 C          64.5764   85.7099   14.5369 C.ar    1  UNL1        0.0061
     11 C          64.6193   84.2121   14.6042 C.ar    1  UNL1        0.0011
     12 C          63.8477   83.3944   13.6112 C.ar    1  UNL1        0.0130
     13 C          63.0332   84.0745   12.5510 C.ar    1  UNL1        0.0771
     14 CL         62.2617   83.2567   11.5580 Cl      1  UNL1       -0.0806
     15 C          62.9903   85.5724   12.4838 C.ar    1  UNL1        0.1177
     16 N          62.1758   86.2525   11.4236 N.ar    1  UNL1       -0.1468
     17 N          60.9072   87.0219   11.6443 N.ar    1  UNL1       -0.1447
     18 C          60.4343   87.5276   10.3136 C.ar    1  UNL1        0.1446
     19 C          61.4106   87.0708    9.2705 C.ar    1  UNL1        0.1446
     20 N          62.4870   86.2828    9.9565 N.ar    1  UNL1       -0.1447
     21 C          63.6332   90.8838   13.2751 C.3     1  UNL1        0.0510
     22 C          64.9018   91.6138   12.9472 C.ar    1  UNL1        0.0071
     23 C          64.9182   92.6310   11.8449 C.ar    1  UNL1        0.0011
     24 C          66.1869   93.3611   11.5169 C.ar    1  UNL1        0.0356
     25 C          67.4391   93.0739   12.2912 C.ar    1  UNL1        0.0053
     26 C          67.4227   92.0567   13.3935 C.ar    1  UNL1        0.0294
     27 C          66.1540   91.3266   13.7214 C.ar    1  UNL1        0.1362
     28 F          66.1376   90.3094   14.8237 F       1  UNL1       -0.2045
     29 C          66.2033   94.3783   10.4147 C.ar    1  UNL1        0.1622
     30 N          67.0698   94.1641    9.2092 N.ar    1  UNL1       -0.2250
     31 C          67.0863   95.1813    8.1070 C.ar    1  UNL1        0.1022
     32 C          66.2361   96.4129    8.2102 C.ar    1  UNL1        0.0414
     33 C          65.3695   96.6271    9.4157 C.ar    1  UNL1        0.1022
     34 N          65.3531   95.6098   10.5180 N.ar    1  UNL1       -0.2250
@<TRIPOS>BOND
     1     1     2    2
     2     2     9    1
     3     9    10   ar
     4    10    11   ar
     5    11    12   ar
     6    12    13   ar
     7    13    14    1
     8    13    15   ar
     9    15    16    1
    10    16    17   ar
    11    17    18   ar
    12    18    19   ar
    13    19    20   ar
    14     2     3   am
    15     3     4    1
    16     4     5    1
    17     5     6    1
    18     6     7    1
    19     7     8    1
    20     8    21    1
    21    21    22    1
    22    22    23   ar
    23    23    24   ar
    24    24    29    1
    25    29    30   ar
    26    30    31   ar
    27    31    32   ar
    28    32    33   ar
    29    33    34   ar
    30    24    25   ar
    31    25    26   ar
    32    26    27   ar
    33    27    28    1
    34    15     9   ar
    35    20    16   ar
    36     8     3    1
    37    27    22   ar
    38    34    29   ar
