@<TRIPOS>MOLECULE
*****
 32 36 0 0 0
SMALL
GASTEIGER

@<TRIPOS>ATOM
      1 C          63.0649   86.3636   12.5153 C.2     1  UNL1        0.2506
      2 O          63.5792   87.2269   13.6290 O.2     1  UNL1       -0.2699
      3 N          62.3038   86.9797   11.3791 N.am    1  UNL1       -0.2723
      4 C          61.7895   86.1165   10.2654 C.3     1  UNL1        0.1257
      5 C          61.0284   86.7327    9.1291 C.3     1  UNL1        0.1637
      6 O          60.7816   88.2120    9.1065 O.3     1  UNL1       -0.3502
      7 C          61.2959   89.0753   10.2202 C.3     1  UNL1        0.1622
      8 C          62.0570   88.4592   11.3565 C.3     1  UNL1        0.1096
      9 C          64.0405   81.9252    9.9957 C.3     1  UNL1        0.0310
     10 C          63.7995   82.6650   11.2781 C.ar    1  UNL1       -0.0216
     11 C          63.8054   81.9255   12.5831 C.ar    1  UNL1       -0.0026
     12 C          63.5644   82.6654   13.8655 C.ar    1  UNL1        0.0207
     13 C          63.3176   84.1447   13.8430 C.ar    1  UNL1        0.1072
     14 C          63.3118   84.8842   12.5380 C.ar    1  UNL1        0.0726
     15 C          63.5527   84.1444   11.2556 C.ar    1  UNL1        0.0018
     16 N          63.0767   84.8845   15.1254 N.ar    1  UNL1       -0.1477
     17 N          64.1203   85.5673   15.9589 N.ar    1  UNL1       -0.1447
     18 C          63.4384   86.1763   17.1481 C.ar    1  UNL1        0.1446
     19 C          61.9734   85.8699   17.0496 C.ar    1  UNL1        0.1446
     20 N          61.7498   85.0715   15.7995 N.ar    1  UNL1       -0.1447
     21 C          62.5713   89.3224   12.4701 C.3     1  UNL1        0.0487
     22 C          63.5696   90.4040   12.1809 C.ar    1  UNL1       -0.0204
     23 C          63.5695   91.0871   10.8456 C.ar    1  UNL1       -0.0042
     24 C          64.5678   92.1687   10.5563 C.ar    1  UNL1       -0.0003
     25 C          65.5661   92.5672   11.6025 C.ar    1  UNL1        0.0020
     26 C          65.5662   91.8840   12.9379 C.ar    1  UNL1        0.0235
     27 C          64.5679   90.8024   13.2271 C.ar    1  UNL1       -0.0022
     28 C          66.5646   92.2824   13.9841 C.ar    1  UNL1        0.1107
     29 N          68.0388   92.4617   13.7732 N.ar    1  UNL1       -0.2368
     30 C          68.6494   92.8616   15.0836 C.ar    1  UNL1        0.1064
     31 C          67.5525   92.9295   16.1045 C.ar    1  UNL1        0.0575
     32 S          66.2639   92.5716   15.4250 S.2     1  UNL1       -0.0659
@<TRIPOS>BOND
     1     9    10    1
     2    10    11   ar
     3    11    12   ar
     4    12    13   ar
     5    13    16    1
     6    16    17   ar
     7    17    18   ar
     8    18    19   ar
     9    19    20   ar
    10    13    14   ar
    11    14     1    1
    12     1     2    2
    13     1     3   am
    14     3     4    1
    15     4     5    1
    16     5     6    1
    17     6     7    1
    18     7     8    1
    19     8    21    1
    20    21    22    1
    21    22    23   ar
    22    23    24   ar
    23    24    25   ar
    24    25    26   ar
    25    26    28    1
    26    28    29   ar
    27    29    30   ar
    28    30    31   ar
    29    31    32   ar
    30    26    27   ar
    31    14    15   ar
    32    15    10   ar
    33    20    16   ar
    34     8     3    1
    35    27    22   ar
    36    32    28   ar
@<TRIPOS>MOLECULE
*****
 32 36 0 0 0
SMALL
GASTEIGER

@<TRIPOS>ATOM
      1 C          62.6453   88.5168   11.5734 C.2     1  UNL1        0.2506
      2 O          62.6072   90.0163   11.5648 O.2     1  UNL1       -0.2699
      3 N          63.3117   87.7899   12.7036 N.am    1  UNL1       -0.2723
      4 C          63.3498   86.2904   12.7121 C.3     1  UNL1        0.1257
      5 C          64.0164   85.5635   13.8424 C.3     1  UNL1        0.1637
      6 O          64.6448   86.3361   14.9641 O.3     1  UNL1       -0.3502
      7 C          64.6067   87.8356   14.9555 C.3     1  UNL1        0.1622
      8 C          63.9402   88.5625   13.8253 C.3     1  UNL1        0.1096
      9 C          63.0127   84.9740    7.7900 C.3     1  UNL1        0.0310
     10 C          62.2006   85.9728    8.5600 C.ar    1  UNL1       -0.0216
     11 C          60.7601   86.1990    8.2083 C.ar    1  UNL1       -0.0026
     12 C          59.9479   87.1977    8.9783 C.ar    1  UNL1        0.0207
     13 C          60.5763   87.9703   10.1000 C.ar    1  UNL1        0.1072
     14 C          62.0168   87.7441   10.4517 C.ar    1  UNL1        0.0726
     15 C          62.8290   86.7454    9.6816 C.ar    1  UNL1        0.0018
     16 N          59.7642   88.9691   10.8700 N.ar    1  UNL1       -0.1477
     17 N          59.5603   90.4094   10.5043 N.ar    1  UNL1       -0.1447
     18 C          58.6834   91.0334   11.5492 C.ar    1  UNL1        0.1446
     19 C          58.3454   89.9786   12.5607 C.ar    1  UNL1        0.1446
     20 N          59.0133   88.7028   12.1410 N.ar    1  UNL1       -0.1447
     21 C          63.9021   90.0620   13.8167 C.3     1  UNL1        0.0487
     22 C          65.1776   90.8440   13.7099 C.ar    1  UNL1       -0.0204
     23 C          66.1861   90.7892   14.8189 C.ar    1  UNL1       -0.0042
     24 C          67.4617   91.5712   14.7121 C.ar    1  UNL1       -0.0003
     25 C          67.7287   92.4081   13.4963 C.ar    1  UNL1        0.0020
     26 C          66.7202   92.4629   12.3872 C.ar    1  UNL1        0.0235
     27 C          65.4447   91.6809   12.4940 C.ar    1  UNL1       -0.0022
     28 C          66.9873   93.2998   11.1714 C.ar    1  UNL1        0.1107
     29 N          68.0180   93.0207   10.1179 N.ar    1  UNL1       -0.2368
     30 C          67.9383   94.1111    9.0910 C.ar    1  UNL1        0.1064
     31 C          66.8583   95.0641    9.5096 C.ar    1  UNL1        0.0575
     32 S          66.2704   94.5627   10.7954 S.2     1  UNL1       -0.0659
@<TRIPOS>BOND
     1     9    10    1
     2    10    11   ar
     3    11    12   ar
     4    12    13   ar
     5    13    16    1
     6    16    17   ar
     7    17    18   ar
     8    18    19   ar
     9    19    20   ar
    10    13    14   ar
    11    14     1    1
    12     1     2    2
    13     1     3   am
    14     3     4    1
    15     4     5    1
    16     5     6    1
    17     6     7    1
    18     7     8    1
    19     8    21    1
    20    21    22    1
    21    22    23   ar
    22    23    24   ar
    23    24    25   ar
    24    25    26   ar
    25    26    28    1
    26    28    29   ar
    27    29    30   ar
    28    30    31   ar
    29    31    32   ar
    30    26    27   ar
    31    14    15   ar
    32    15    10   ar
    33    20    16   ar
    34     8     3    1
    35    27    22   ar
    36    32    28   ar
@<TRIPOS>MOLECULE
*****
 32 36 0 0 0
SMALL
GASTEIGER

@<TRIPOS>ATOM
      1 C          62.7104   87.3777   11.6709 C.2     1  UNL1        0.2506
      2 O          63.6711   87.8228   12.7335 O.2     1  UNL1       -0.2699
      3 N          61.5896   88.2802   11.2474 N.am    1  UNL1       -0.2723
      4 C          60.6289   87.8351   10.1849 C.3     1  UNL1        0.1257
      5 C          59.5082   88.7377    9.7614 C.3     1  UNL1        0.1637
      6 O          59.3481   90.0853   10.4004 O.3     1  UNL1       -0.3502
      7 C          60.3088   90.5304   11.4630 C.3     1  UNL1        0.1622
      8 C          61.4296   89.6278   11.8865 C.3     1  UNL1        0.1096
      9 C          62.8475   84.4050    7.4113 C.3     1  UNL1        0.0310
     10 C          62.9390   84.5437    8.9021 C.ar    1  UNL1       -0.0216
     11 C          63.1906   83.3349    9.7538 C.ar    1  UNL1       -0.0026
     12 C          63.2821   83.4737   11.2446 C.ar    1  UNL1        0.0207
     13 C          63.1220   84.8212   11.8836 C.ar    1  UNL1        0.1072
     14 C          62.8704   86.0300   11.0319 C.ar    1  UNL1        0.0726
     15 C          62.7789   85.8913    9.5411 C.ar    1  UNL1        0.0018
     16 N          63.2135   84.9600   13.3744 N.ar    1  UNL1       -0.1477
     17 N          62.0867   84.7781   14.3476 N.ar    1  UNL1       -0.1447
     18 C          62.6247   85.0107   15.7284 C.ar    1  UNL1        0.1446
     19 C          64.0840   85.3364   15.6085 C.ar    1  UNL1        0.1446
     20 N          64.4479   85.3050   14.1537 N.ar    1  UNL1       -0.1447
     21 C          62.3903   90.0729   12.9490 C.3     1  UNL1        0.0487
     22 C          63.5857   90.9005   12.5803 C.ar    1  UNL1       -0.0204
     23 C          63.7343   91.4220   11.1818 C.ar    1  UNL1       -0.0042
     24 C          64.9298   92.2496   10.8130 C.ar    1  UNL1       -0.0003
     25 C          65.9767   92.5556   11.8428 C.ar    1  UNL1        0.0020
     26 C          65.8280   92.0340   13.2414 C.ar    1  UNL1        0.0235
     27 C          64.6326   91.2065   13.6101 C.ar    1  UNL1       -0.0022
     28 C          66.8749   92.3400   14.2711 C.ar    1  UNL1        0.1107
     29 N          68.3520   92.4313   14.0267 N.ar    1  UNL1       -0.2368
     30 C          69.0185   92.7561   15.3307 C.ar    1  UNL1        0.1064
     31 C          67.9532   92.8657   16.3810 C.ar    1  UNL1        0.0575
     32 S          66.6284   92.6085   15.7263 S.2     1  UNL1       -0.0659
@<TRIPOS>BOND
     1     9    10    1
     2    10    11   ar
     3    11    12   ar
     4    12    13   ar
     5    13    16    1
     6    16    17   ar
     7    17    18   ar
     8    18    19   ar
     9    19    20   ar
    10    13    14   ar
    11    14     1    1
    12     1     2    2
    13     1     3   am
    14     3     4    1
    15     4     5    1
    16     5     6    1
    17     6     7    1
    18     7     8    1
    19     8    21    1
    20    21    22    1
    21    22    23   ar
    22    23    24   ar
    23    24    25   ar
    24    25    26   ar
    25    26    28    1
    26    28    29   ar
    27    29    30   ar
    28    30    31   ar
    29    31    32   ar
    30    26    27   ar
    31    14    15   ar
    32    15    10   ar
    33    20    16   ar
    34     8     3    1
    35    27    22   ar
    36    32    28   ar
@<TRIPOS>MOLECULE
*****
 32 36 0 0 0
SMALL
GASTEIGER

@<TRIPOS>ATOM
      1 C          62.7297   87.3206   11.7904 C.2     1  UNL1        0.2506
      2 O          63.4011   87.4837   13.1218 O.2     1  UNL1       -0.2699
      3 N          61.9042   88.4381   11.2248 N.am    1  UNL1       -0.2723
      4 C          61.2328   88.2750    9.8934 C.3     1  UNL1        0.1257
      5 C          60.4073   89.3926    9.3279 C.3     1  UNL1        0.1637
      6 O          60.2533   90.6731   10.0937 O.3     1  UNL1       -0.3502
      7 C          60.9247   90.8361   11.4251 C.3     1  UNL1        0.1622
      8 C          61.7502   89.7187   11.9907 C.3     1  UNL1        0.1096
      9 C          62.8112   84.7643    7.2672 C.3     1  UNL1        0.0310
     10 C          62.9245   84.7619    8.7629 C.ar    1  UNL1       -0.0216
     11 C          63.1918   83.4791    9.4928 C.ar    1  UNL1       -0.0026
     12 C          63.3051   83.4767   10.9885 C.ar    1  UNL1        0.0207
     13 C          63.1511   84.7572   11.7544 C.ar    1  UNL1        0.1072
     14 C          62.8837   86.0400   11.0245 C.ar    1  UNL1        0.0726
     15 C          62.7705   86.0424    9.5288 C.ar    1  UNL1        0.0018
     16 N          63.2644   84.7548   13.2501 N.ar    1  UNL1       -0.1477
     17 N          64.5400   84.8033   14.0378 N.ar    1  UNL1       -0.1447
     18 C          64.1859   84.7820   15.4952 C.ar    1  UNL1        0.1446
     19 C          62.6914   84.7203   15.6083 C.ar    1  UNL1        0.1446
     20 N          62.1219   84.7035   14.2208 N.ar    1  UNL1       -0.1447
     21 C          62.4216   89.8817   13.3221 C.3     1  UNL1        0.0487
     22 C          63.7464   90.5792   13.4136 C.ar    1  UNL1       -0.0204
     23 C          64.5874   90.4328   14.6469 C.ar    1  UNL1       -0.0042
     24 C          65.9122   91.1303   14.7385 C.ar    1  UNL1       -0.0003
     25 C          66.3960   91.9742   13.5966 C.ar    1  UNL1        0.0020
     26 C          65.5549   92.1205   12.3632 C.ar    1  UNL1        0.0235
     27 C          64.2301   91.4230   12.2717 C.ar    1  UNL1       -0.0022
     28 C          66.0387   92.9644   11.2213 C.ar    1  UNL1        0.1107
     29 N          65.4894   94.3006   10.8179 N.ar    1  UNL1       -0.2368
     30 C          66.2679   94.7823    9.6296 C.ar    1  UNL1        0.1064
     31 C          67.2984   93.7437    9.2987 C.ar    1  UNL1        0.0575
     32 S          67.1567   92.6201   10.2823 S.2     1  UNL1       -0.0659
@<TRIPOS>BOND
     1     9    10    1
     2    10    11   ar
     3    11    12   ar
     4    12    13   ar
     5    13    16    1
     6    16    17   ar
     7    17    18   ar
     8    18    19   ar
     9    19    20   ar
    10    13    14   ar
    11    14     1    1
    12     1     2    2
    13     1     3   am
    14     3     4    1
    15     4     5    1
    16     5     6    1
    17     6     7    1
    18     7     8    1
    19     8    21    1
    20    21    22    1
    21    22    23   ar
    22    23    24   ar
    23    24    25   ar
    24    25    26   ar
    25    26    28    1
    26    28    29   ar
    27    29    30   ar
    28    30    31   ar
    29    31    32   ar
    30    26    27   ar
    31    14    15   ar
    32    15    10   ar
    33    20    16   ar
    34     8     3    1
    35    27    22   ar
    36    32    28   ar
@<TRIPOS>MOLECULE
*****
 32 36 0 0 0
SMALL
GASTEIGER

@<TRIPOS>ATOM
      1 C          63.3449   87.0033   13.1034 C.2     1  UNL1        0.2506
      2 O          63.8168   87.6529   14.3703 O.2     1  UNL1       -0.2699
      3 N          62.8124   87.8453   11.9820 N.am    1  UNL1       -0.2723
      4 C          62.3404   87.1957   10.7151 C.3     1  UNL1        0.1257
      5 C          61.8080   88.0378    9.5937 C.3     1  UNL1        0.1637
      6 O          61.7475   89.5294    9.7393 O.3     1  UNL1       -0.3502
      7 C          62.2194   90.1791   11.0063 C.3     1  UNL1        0.1622
      8 C          62.7519   89.3371   12.1276 C.3     1  UNL1        0.1096
      9 C          63.9738   82.7948   10.1212 C.3     1  UNL1        0.0310
     10 C          63.7199   83.4074   11.4666 C.ar    1  UNL1       -0.0216
     11 C          63.5264   82.5283   12.6665 C.ar    1  UNL1       -0.0026
     12 C          63.2724   83.1408   14.0120 C.ar    1  UNL1        0.0207
     13 C          63.2119   84.6324   14.1576 C.ar    1  UNL1        0.1072
     14 C          63.4054   85.5116   12.9578 C.ar    1  UNL1        0.0726
     15 C          63.6594   84.8990   11.6123 C.ar    1  UNL1        0.0018
     16 N          62.9579   85.2450   15.5031 N.ar    1  UNL1       -0.1477
     17 N          64.0017   85.7666   16.4456 N.ar    1  UNL1       -0.1447
     18 C          63.3045   86.2874   17.6673 C.ar    1  UNL1        0.1446
     19 C          61.8297   86.0877   17.4798 C.ar    1  UNL1        0.1446
     20 N          61.6155   85.4434   16.1423 N.ar    1  UNL1       -0.1447
     21 C          63.2239   89.9867   13.3946 C.3     1  UNL1        0.0487
     22 C          64.5167   90.7471   13.4110 C.ar    1  UNL1       -0.0204
     23 C          65.4368   90.6367   14.5905 C.ar    1  UNL1       -0.0042
     24 C          66.7297   91.3971   14.6070 C.ar    1  UNL1       -0.0003
     25 C          67.1025   92.2680   13.4439 C.ar    1  UNL1        0.0020
     26 C          66.1823   92.3784   12.2644 C.ar    1  UNL1        0.0235
     27 C          64.8895   91.6180   12.2480 C.ar    1  UNL1       -0.0022
     28 C          66.5550   93.2493   11.1014 C.ar    1  UNL1        0.1107
     29 N          67.6651   92.9906   10.1263 N.ar    1  UNL1       -0.2368
     30 C          67.6793   94.1132    9.1315 C.ar    1  UNL1        0.1064
     31 C          66.5779   95.0657    9.4918 C.ar    1  UNL1        0.0575
     32 S          65.8831   94.5318   10.7092 S.2     1  UNL1       -0.0659
@<TRIPOS>BOND
     1     9    10    1
     2    10    11   ar
     3    11    12   ar
     4    12    13   ar
     5    13    16    1
     6    16    17   ar
     7    17    18   ar
     8    18    19   ar
     9    19    20   ar
    10    13    14   ar
    11    14     1    1
    12     1     2    2
    13     1     3   am
    14     3     4    1
    15     4     5    1
    16     5     6    1
    17     6     7    1
    18     7     8    1
    19     8    21    1
    20    21    22    1
    21    22    23   ar
    22    23    24   ar
    23    24    25   ar
    24    25    26   ar
    25    26    28    1
    26    28    29   ar
    27    29    30   ar
    28    30    31   ar
    29    31    32   ar
    30    26    27   ar
    31    14    15   ar
    32    15    10   ar
    33    20    16   ar
    34     8     3    1
    35    27    22   ar
    36    32    28   ar
@<TRIPOS>MOLECULE
*****
 32 36 0 0 0
SMALL
GASTEIGER

@<TRIPOS>ATOM
      1 C          63.3811   87.9160   13.2061 C.2     1  UNL1        0.2506
      2 O          63.5548   89.0027   12.1869 O.2     1  UNL1       -0.2699
      3 N          63.3394   88.2568   14.6663 N.am    1  UNL1       -0.2723
      4 C          63.1656   87.1700   15.6855 C.3     1  UNL1        0.1257
      5 C          63.1240   87.5109   17.1457 C.3     1  UNL1        0.1637
      6 O          63.2561   88.9385   17.5866 O.3     1  UNL1       -0.3502
      7 C          63.4298   90.0253   16.5674 C.3     1  UNL1        0.1622
      8 C          63.4715   89.6844   15.1073 C.3     1  UNL1        0.1096
      9 C          64.6428   82.9043   13.7459 C.3     1  UNL1        0.0310
     10 C          63.8799   83.9825   13.0350 C.ar    1  UNL1       -0.0216
     11 C          62.9848   83.6331   11.8832 C.ar    1  UNL1       -0.0026
     12 C          62.2219   84.7113   11.1723 C.ar    1  UNL1        0.0207
     13 C          62.3540   86.1389   11.6132 C.ar    1  UNL1        0.1072
     14 C          63.2490   86.4883   12.7651 C.ar    1  UNL1        0.0726
     15 C          64.0119   85.4101   13.4760 C.ar    1  UNL1        0.0018
     16 N          61.5910   87.2171   10.9024 N.ar    1  UNL1       -0.1477
     17 N          60.3848   87.9371   11.4284 N.ar    1  UNL1       -0.1447
     18 C          59.9486   88.9296   10.3918 C.ar    1  UNL1        0.1446
     19 C          60.8852   88.8231    9.2250 C.ar    1  UNL1        0.1446
     20 N          61.9003   87.7647    9.5406 N.ar    1  UNL1       -0.1447
     21 C          63.6453   90.7712   14.0881 C.3     1  UNL1        0.0487
     22 C          65.0076   91.3405   13.8236 C.ar    1  UNL1       -0.0204
     23 C          66.1318   91.0702   14.7791 C.ar    1  UNL1       -0.0042
     24 C          67.4942   91.6395   14.5146 C.ar    1  UNL1       -0.0003
     25 C          67.7322   92.4791   13.2947 C.ar    1  UNL1        0.0020
     26 C          66.6079   92.7495   12.3391 C.ar    1  UNL1        0.0235
     27 C          65.2456   92.1802   12.6036 C.ar    1  UNL1       -0.0022
     28 C          66.8460   93.5891   11.1192 C.ar    1  UNL1        0.1107
     29 N          67.8817   93.3371   10.0638 N.ar    1  UNL1       -0.2368
     30 C          67.7660   94.4204    9.0327 C.ar    1  UNL1        0.1064
     31 C          66.6587   95.3419    9.4509 C.ar    1  UNL1        0.0575
     32 S          66.0901   94.8282   10.7404 S.2     1  UNL1       -0.0659
@<TRIPOS>BOND
     1     9    10    1
     2    10    11   ar
     3    11    12   ar
     4    12    13   ar
     5    13    16    1
     6    16    17   ar
     7    17    18   ar
     8    18    19   ar
     9    19    20   ar
    10    13    14   ar
    11    14     1    1
    12     1     2    2
    13     1     3   am
    14     3     4    1
    15     4     5    1
    16     5     6    1
    17     6     7    1
    18     7     8    1
    19     8    21    1
    20    21    22    1
    21    22    23   ar
    22    23    24   ar
    23    24    25   ar
    24    25    26   ar
    25    26    28    1
    26    28    29   ar
    27    29    30   ar
    28    30    31   ar
    29    31    32   ar
    30    26    27   ar
    31    14    15   ar
    32    15    10   ar
    33    20    16   ar
    34     8     3    1
    35    27    22   ar
    36    32    28   ar
