@<TRIPOS>MOLECULE
*****
 38 42 0 0 0
SMALL
GASTEIGER

@<TRIPOS>ATOM
      1 C          62.5636   85.3753   11.7412 C.ar    1  UNL1        0.1633
      2 N          63.3098   86.2238   12.7277 N.ar    1  UNL1       -0.2294
      3 C          63.2397   87.7193   12.6349 C.ar    1  UNL1        0.0794
      4 C          62.4234   88.3663   11.5556 C.ar    1  UNL1        0.0264
      5 C          61.6771   87.5178   10.5691 C.ar    1  UNL1        0.1306
      6 N          61.7472   86.0223   10.6619 N.ar    1  UNL1       -0.2122
      7 C          62.3533   89.8617   11.4627 C.3     1  UNL1        0.0519
      8 C          63.0995   90.7102   12.4492 C.3     1  UNL1        0.0973
      9 N          63.9159   90.0632   13.5285 N.pl3   1  UNL1       -0.2874
     10 C          63.9860   88.5677   13.6214 C.3     1  UNL1        0.1381
     11 N          60.8607   88.1648    9.4897 N.pl3   1  UNL1       -0.2900
     12 C          60.4958   89.6159    9.5934 C.3     1  UNL1        0.1242
     13 C          59.6794   90.2630    8.5141 C.3     1  UNL1        0.1636
     14 O          59.2280   89.4588    7.3311 O.3     1  UNL1       -0.3502
     15 C          59.5930   88.0075    7.2274 C.3     1  UNL1        0.1618
     16 C          60.4093   87.3605    8.3067 C.3     1  UNL1        0.1038
     17 C          60.7743   85.9093    8.2031 C.3     1  UNL1        0.0241
     18 C          64.6622   90.9117   14.5150 C.ar    1  UNL1        0.1349
     19 C          66.1047   91.2464   14.2763 C.ar    1  UNL1        0.0491
     20 C          66.8510   92.0949   15.2628 C.ar    1  UNL1        0.0639
     21 C          68.2936   92.4295   15.0241 C.3     1  UNL1        0.0522
     22 N          66.1547   92.6088   16.4880 N.ar    1  UNL1       -0.2283
     23 C          64.7120   92.2741   16.7267 C.ar    1  UNL1        0.1997
     24 N          63.9658   91.4256   15.7402 N.ar    1  UNL1       -0.2090
     25 C          62.7737   80.8889   12.0197 C.ar    1  UNL1        0.0516
     26 C          62.2332   81.6871   13.1689 C.ar    1  UNL1        0.0148
     27 C          62.1632   83.1826   13.0760 C.ar    1  UNL1        0.0043
     28 C          62.6336   83.8798   11.8340 C.ar    1  UNL1        0.0359
     29 C          63.1742   83.0815   10.6849 C.ar    1  UNL1        0.0043
     30 C          63.2442   81.5861   10.7777 C.ar    1  UNL1        0.0148
     31 N          63.0998   77.0773   10.9635 N.am    1  UNL1       -0.2887
     32 C          63.0298   78.5727   10.8708 C.2     1  UNL1        0.3045
     33 O          63.1456   79.2477    9.5361 O.2     1  UNL1       -0.2525
     34 N          62.8438   79.3933   12.1125 N.am    1  UNL1       -0.2683
     35 H          63.0238   76.6343   11.8394 H       1  UNL1        0.1510
     36 H          62.7678   78.9504   12.9885 H       1  UNL1        0.1564
     37 C          64.6275   76.2011    9.0534 C.3     1  UNL1        0.0230
     38 C          63.2858   76.2567    9.7217 C.3     1  UNL1        0.0910
@<TRIPOS>BOND
     1    37    38    1
     2    38    31    1
     3    31    32   am
     4    32    33    2
     5    32    34   am
     6    34    25    1
     7    25    26   ar
     8    26    27   ar
     9    27    28   ar
    10    28     1    1
    11     1     2   ar
    12     2     3   ar
    13     3     4   ar
    14     4     5   ar
    15     5    11    1
    16    11    12    1
    17    12    13    1
    18    13    14    1
    19    14    15    1
    20    15    16    1
    21    16    17    1
    22     5     6   ar
    23     4     7    1
    24     7     8    1
    25     8     9    1
    26     9    18    1
    27    18    19   ar
    28    19    20   ar
    29    20    21    1
    30    20    22   ar
    31    22    23   ar
    32    23    24   ar
    33     9    10    1
    34    28    29   ar
    35    29    30   ar
    36    30    25   ar
    37     6     1   ar
    38    24    18   ar
    39    10     3    1
    40    16    11    1
    41    31    35    1
    42    34    36    1
@<TRIPOS>MOLECULE
*****
 38 42 0 0 0
SMALL
GASTEIGER

@<TRIPOS>ATOM
      1 C          62.9823   89.3765   11.8529 C.ar    1  UNL1        0.1633
      2 N          62.1076   90.0474   10.8358 N.ar    1  UNL1       -0.2294
      3 C          61.3687   89.2244    9.8224 C.ar    1  UNL1        0.0794
      4 C          61.5047   87.7306    9.8262 C.ar    1  UNL1        0.0264
      5 C          62.3795   87.0597   10.8434 C.ar    1  UNL1        0.1306
      6 N          63.1183   87.8827   11.8567 N.ar    1  UNL1       -0.2122
      7 C          60.7659   86.9077    8.8128 C.3     1  UNL1        0.0519
      8 C          59.8911   87.5786    7.7957 C.3     1  UNL1        0.0973
      9 N          59.7551   89.0724    7.7919 N.pl3   1  UNL1       -0.2874
     10 C          60.4939   89.8953    8.8052 C.3     1  UNL1        0.1381
     11 N          62.5155   85.5659   10.8472 N.pl3   1  UNL1       -0.2900
     12 C          62.1499   84.7827   12.0731 C.3     1  UNL1        0.1242
     13 C          62.2859   83.2888   12.0769 C.3     1  UNL1        0.1636
     14 O          62.7874   82.5783   10.8548 O.3     1  UNL1       -0.3502
     15 C          63.1530   83.3615    9.6288 C.3     1  UNL1        0.1618
     16 C          63.0170   84.8554    9.6250 C.3     1  UNL1        0.1038
     17 C          63.3826   85.6386    8.3991 C.3     1  UNL1        0.0241
     18 C          58.8803   89.7433    6.7747 C.ar    1  UNL1        0.1349
     19 C          59.4723   90.7242    5.8065 C.ar    1  UNL1        0.0491
     20 C          58.5974   91.3951    4.7893 C.ar    1  UNL1        0.0639
     21 C          59.1894   92.3760    3.8211 C.3     1  UNL1        0.0522
     22 N          57.1306   91.0850    4.7403 N.ar    1  UNL1       -0.2283
     23 C          56.5387   90.1040    5.7085 C.ar    1  UNL1        0.1997
     24 N          57.4135   89.4332    6.7257 N.ar    1  UNL1       -0.2090
     25 C          65.1988   91.8451   14.8932 C.ar    1  UNL1        0.0516
     26 C          64.4350   90.6294   15.3272 C.ar    1  UNL1        0.0148
     27 C          63.6962   89.8065   14.3138 C.ar    1  UNL1        0.0043
     28 C          63.7212   90.1994   12.8664 C.ar    1  UNL1        0.0359
     29 C          64.4850   91.4152   12.4324 C.ar    1  UNL1        0.0043
     30 C          65.2238   92.2380   13.4457 C.ar    1  UNL1        0.0148
     31 N          67.9901   94.1203   16.5613 N.am    1  UNL1       -0.2887
     32 C          67.2512   93.2974   15.5480 C.2     1  UNL1        0.3045
     33 O          67.8259   93.1037   14.1760 O.2     1  UNL1       -0.2525
     34 N          65.9377   92.6681   15.9066 N.am    1  UNL1       -0.2683
     35 H          67.6129   94.2473   17.4618 H       1  UNL1        0.1510
     36 H          65.5605   92.7951   16.8070 H       1  UNL1        0.1564
     37 C          70.4615   93.8878   15.7946 C.3     1  UNL1        0.0230
     38 C          69.3036   94.7496   16.2027 C.3     1  UNL1        0.0910
@<TRIPOS>BOND
     1    37    38    1
     2    38    31    1
     3    31    32   am
     4    32    33    2
     5    32    34   am
     6    34    25    1
     7    25    26   ar
     8    26    27   ar
     9    27    28   ar
    10    28     1    1
    11     1     2   ar
    12     2     3   ar
    13     3     4   ar
    14     4     5   ar
    15     5    11    1
    16    11    12    1
    17    12    13    1
    18    13    14    1
    19    14    15    1
    20    15    16    1
    21    16    17    1
    22     5     6   ar
    23     4     7    1
    24     7     8    1
    25     8     9    1
    26     9    18    1
    27    18    19   ar
    28    19    20   ar
    29    20    21    1
    30    20    22   ar
    31    22    23   ar
    32    23    24   ar
    33     9    10    1
    34    28    29   ar
    35    29    30   ar
    36    30    25   ar
    37     6     1   ar
    38    24    18   ar
    39    10     3    1
    40    16    11    1
    41    31    35    1
    42    34    36    1
@<TRIPOS>MOLECULE
*****
 38 42 0 0 0
SMALL
GASTEIGER

@<TRIPOS>ATOM
      1 C          63.6574   89.0836   12.6140 C.ar    1  UNL1        0.1633
      2 N          63.8351   87.7064   13.1811 N.ar    1  UNL1       -0.2294
      3 C          63.1157   86.5431   12.5653 C.ar    1  UNL1        0.0794
      4 C          62.2186   86.7570   11.3823 C.ar    1  UNL1        0.0264
      5 C          62.0409   88.1343   10.8151 C.ar    1  UNL1        0.1306
      6 N          62.7603   89.2976   11.4310 N.ar    1  UNL1       -0.2122
      7 C          61.4992   85.5938   10.7665 C.3     1  UNL1        0.0519
      8 C          61.6769   84.2166   11.3336 C.3     1  UNL1        0.0973
      9 N          62.5740   84.0026   12.5166 N.pl3   1  UNL1       -0.2874
     10 C          63.2934   85.1659   13.1324 C.3     1  UNL1        0.1381
     11 N          61.1438   88.3483    9.6322 N.pl3   1  UNL1       -0.2900
     12 C          61.0610   87.3070    8.5557 C.3     1  UNL1        0.1242
     13 C          60.1639   87.5210    7.3727 C.3     1  UNL1        0.1636
     14 O          59.3497   88.7762    7.2662 O.3     1  UNL1       -0.3502
     15 C          59.4325   89.8176    8.3427 C.3     1  UNL1        0.1618
     16 C          60.3296   89.6036    9.5257 C.3     1  UNL1        0.1038
     17 C          60.4125   90.6449   10.6022 C.3     1  UNL1        0.0241
     18 C          62.7516   82.6253   13.0837 C.ar    1  UNL1        0.1349
     19 C          61.5520   81.7716   13.3700 C.ar    1  UNL1        0.0491
     20 C          61.7296   80.3943   13.9371 C.ar    1  UNL1        0.0639
     21 C          60.5300   79.5406   14.2233 C.3     1  UNL1        0.0522
     22 N          63.1070   79.8708   14.2180 N.ar    1  UNL1       -0.2283
     23 C          64.3067   80.7247   13.9318 C.ar    1  UNL1        0.1997
     24 N          64.1290   82.1019   13.3647 N.ar    1  UNL1       -0.2090
     25 C          65.8156   92.5734   14.4615 C.ar    1  UNL1        0.0516
     26 C          65.3237   91.4520   15.3277 C.ar    1  UNL1        0.0148
     27 C          64.6043   90.2888   14.7119 C.ar    1  UNL1        0.0043
     28 C          64.3768   90.2469   13.2298 C.ar    1  UNL1        0.0359
     29 C          64.8688   91.3683   12.3636 C.ar    1  UNL1        0.0043
     30 C          65.5882   92.5316   12.9794 C.ar    1  UNL1        0.0148
     31 N          68.7109   94.7862   16.0335 N.am    1  UNL1       -0.2887
     32 C          67.9915   93.6229   15.4177 C.2     1  UNL1        0.3045
     33 O          68.7285   92.3458   15.1422 O.2     1  UNL1       -0.2525
     34 N          66.5350   93.7367   15.0773 N.am    1  UNL1       -0.2683
     35 H          68.2272   95.6244   16.2143 H       1  UNL1        0.1510
     36 H          66.0513   94.5749   15.2581 H       1  UNL1        0.1564
     37 C          71.2062   94.9806   15.3367 C.3     1  UNL1        0.0230
     38 C          70.1673   94.6724   16.3738 C.3     1  UNL1        0.0910
@<TRIPOS>BOND
     1    37    38    1
     2    38    31    1
     3    31    32   am
     4    32    33    2
     5    32    34   am
     6    34    25    1
     7    25    26   ar
     8    26    27   ar
     9    27    28   ar
    10    28     1    1
    11     1     2   ar
    12     2     3   ar
    13     3     4   ar
    14     4     5   ar
    15     5    11    1
    16    11    12    1
    17    12    13    1
    18    13    14    1
    19    14    15    1
    20    15    16    1
    21    16    17    1
    22     5     6   ar
    23     4     7    1
    24     7     8    1
    25     8     9    1
    26     9    18    1
    27    18    19   ar
    28    19    20   ar
    29    20    21    1
    30    20    22   ar
    31    22    23   ar
    32    23    24   ar
    33     9    10    1
    34    28    29   ar
    35    29    30   ar
    36    30    25   ar
    37     6     1   ar
    38    24    18   ar
    39    10     3    1
    40    16    11    1
    41    31    35    1
    42    34    36    1
@<TRIPOS>MOLECULE
*****
 38 42 0 0 0
SMALL
GASTEIGER

@<TRIPOS>ATOM
      1 C          61.3747   88.0532    9.7946 C.ar    1  UNL1        0.1633
      2 N          61.3437   86.5603    9.9362 N.ar    1  UNL1       -0.2294
      3 C          62.0438   85.9014   11.0877 C.ar    1  UNL1        0.0794
      4 C          62.7747   86.7356   12.0976 C.ar    1  UNL1        0.0264
      5 C          62.8056   88.2286   11.9560 C.ar    1  UNL1        0.1306
      6 N          62.1056   88.8874   10.8045 N.ar    1  UNL1       -0.2122
      7 C          63.4747   86.0768   13.2491 C.3     1  UNL1        0.0519
      8 C          63.4438   84.5839   13.3907 C.3     1  UNL1        0.0973
      9 N          62.7128   83.7497   12.3808 N.pl3   1  UNL1       -0.2874
     10 C          62.0128   84.4085   11.2293 C.3     1  UNL1        0.1381
     11 N          63.5366   89.0628   12.9659 N.pl3   1  UNL1       -0.2900
     12 C          63.8748   88.4883   14.3095 C.3     1  UNL1        0.1242
     13 C          64.6057   89.3225   15.3194 C.3     1  UNL1        0.1636
     14 O          64.9984   90.7312   14.9856 O.3     1  UNL1       -0.3502
     15 C          64.6602   91.3057   13.6419 C.3     1  UNL1        0.1618
     16 C          63.9292   90.4715   12.6320 C.3     1  UNL1        0.1038
     17 C          63.5910   91.0460   11.2883 C.3     1  UNL1        0.0241
     18 C          62.6819   82.2567   12.5225 C.ar    1  UNL1        0.1349
     19 C          62.8131   81.3853   11.3086 C.ar    1  UNL1        0.0491
     20 C          62.7822   79.8922   11.4503 C.ar    1  UNL1        0.0639
     21 C          62.9134   79.0208   10.2365 C.3     1  UNL1        0.0522
     22 N          62.6201   79.2707   12.8058 N.ar    1  UNL1       -0.2283
     23 C          62.4889   80.1422   14.0197 C.ar    1  UNL1        0.1997
     24 N          62.5198   81.6351   13.8780 N.ar    1  UNL1       -0.2090
     25 C          59.2747   90.0298    6.3402 C.ar    1  UNL1        0.0516
     26 C          60.1698   90.8357    7.2341 C.ar    1  UNL1        0.0148
     27 C          60.8698   90.1768    8.3855 C.ar    1  UNL1        0.0043
     28 C          60.6746   88.7121    8.6431 C.ar    1  UNL1        0.0359
     29 C          59.7795   87.9061    7.7492 C.ar    1  UNL1        0.0043
     30 C          59.0795   88.5650    6.5977 C.ar    1  UNL1        0.0148
     31 N          58.6429   92.2288    3.0974 N.am    1  UNL1       -0.2887
     32 C          59.3428   91.5700    4.2489 C.2     1  UNL1        0.3045
     33 O          60.8111   91.7925    4.4607 O.2     1  UNL1       -0.2525
     34 N          58.5746   90.6886    5.1886 N.am    1  UNL1       -0.2683
     35 H          57.6793   92.0828    2.9584 H       1  UNL1        0.1510
     36 H          57.6110   90.5426    5.0497 H       1  UNL1        0.1564
     37 C          59.0942   93.0997    0.6917 C.3     1  UNL1        0.0230
     38 C          59.4111   93.1102    2.1577 C.3     1  UNL1        0.0910
@<TRIPOS>BOND
     1    37    38    1
     2    38    31    1
     3    31    32   am
     4    32    33    2
     5    32    34   am
     6    34    25    1
     7    25    26   ar
     8    26    27   ar
     9    27    28   ar
    10    28     1    1
    11     1     2   ar
    12     2     3   ar
    13     3     4   ar
    14     4     5   ar
    15     5    11    1
    16    11    12    1
    17    12    13    1
    18    13    14    1
    19    14    15    1
    20    15    16    1
    21    16    17    1
    22     5     6   ar
    23     4     7    1
    24     7     8    1
    25     8     9    1
    26     9    18    1
    27    18    19   ar
    28    19    20   ar
    29    20    21    1
    30    20    22   ar
    31    22    23   ar
    32    23    24   ar
    33     9    10    1
    34    28    29   ar
    35    29    30   ar
    36    30    25   ar
    37     6     1   ar
    38    24    18   ar
    39    10     3    1
    40    16    11    1
    41    31    35    1
    42    34    36    1
@<TRIPOS>MOLECULE
*****
 38 42 0 0 0
SMALL
GASTEIGER

@<TRIPOS>ATOM
      1 C          61.5512   88.5472   10.0720 C.ar    1  UNL1        0.1633
      2 N          61.5567   87.0779   10.3737 N.ar    1  UNL1       -0.2294
      3 C          62.2757   86.5638   11.5858 C.ar    1  UNL1        0.0794
      4 C          62.9891   87.5191   12.4960 C.ar    1  UNL1        0.0264
      5 C          62.9835   88.9884   12.1942 C.ar    1  UNL1        0.1306
      6 N          62.2646   89.5024   10.9822 N.ar    1  UNL1       -0.2122
      7 C          63.7080   87.0050   13.7079 C.3     1  UNL1        0.0519
      8 C          63.7135   85.5358   14.0097 C.3     1  UNL1        0.0973
      9 N          63.0001   84.5805   13.0995 N.pl3   1  UNL1       -0.2874
     10 C          62.2812   85.0945   11.8875 C.3     1  UNL1        0.1381
     11 N          63.6969   89.9437   13.1044 N.pl3   1  UNL1       -0.2900
     12 C          63.7373   89.6841   14.5812 C.3     1  UNL1        0.1242
     13 C          64.4507   90.6394   15.4914 C.3     1  UNL1        0.1636
     14 O          65.1237   91.8543   14.9248 O.3     1  UNL1       -0.3502
     15 C          65.0834   92.1139   13.4480 C.3     1  UNL1        0.1618
     16 C          64.3700   91.1586   12.5378 C.3     1  UNL1        0.1038
     17 C          64.3297   91.4182   11.0610 C.3     1  UNL1        0.0241
     18 C          63.0057   83.1111   13.4013 C.ar    1  UNL1        0.1349
     19 C          61.7140   82.3938   13.6603 C.ar    1  UNL1        0.0491
     20 C          61.7196   80.9244   13.9621 C.ar    1  UNL1        0.0639
     21 C          60.4280   80.2071   14.2212 C.3     1  UNL1        0.0522
     22 N          63.0168   80.1724   14.0048 N.ar    1  UNL1       -0.2283
     23 C          64.3084   80.8898   13.7458 C.ar    1  UNL1        0.1997
     24 N          64.3028   82.3591   13.4440 N.ar    1  UNL1       -0.2090
     25 C          59.3944   90.0893    6.4361 C.ar    1  UNL1        0.0516
     26 C          59.1260   88.7002    6.9343 C.ar    1  UNL1        0.0148
     27 C          59.8449   88.1862    8.1463 C.ar    1  UNL1        0.0043
     28 C          60.8323   89.0612    8.8600 C.ar    1  UNL1        0.0359
     29 C          61.1007   90.4504    8.3617 C.ar    1  UNL1        0.0043
     30 C          60.3817   90.9644    7.1498 C.ar    1  UNL1        0.0148
     31 N          58.6578   92.0394    3.0590 N.am    1  UNL1       -0.2887
     32 C          59.3766   91.5254    4.2710 C.2     1  UNL1        0.3045
     33 O          60.7967   91.9333    4.5300 O.2     1  UNL1       -0.2525
     34 N          58.6755   90.6034    5.2240 N.am    1  UNL1       -0.2683
     35 H          57.7257   91.7717    2.8891 H       1  UNL1        0.1510
     36 H          57.7434   90.3356    5.0541 H       1  UNL1        0.1564
     37 C          58.9912   92.9581    0.6518 C.3     1  UNL1        0.0230
     38 C          59.3589   92.9614    2.1060 C.3     1  UNL1        0.0910
@<TRIPOS>BOND
     1    37    38    1
     2    38    31    1
     3    31    32   am
     4    32    33    2
     5    32    34   am
     6    34    25    1
     7    25    26   ar
     8    26    27   ar
     9    27    28   ar
    10    28     1    1
    11     1     2   ar
    12     2     3   ar
    13     3     4   ar
    14     4     5   ar
    15     5    11    1
    16    11    12    1
    17    12    13    1
    18    13    14    1
    19    14    15    1
    20    15    16    1
    21    16    17    1
    22     5     6   ar
    23     4     7    1
    24     7     8    1
    25     8     9    1
    26     9    18    1
    27    18    19   ar
    28    19    20   ar
    29    20    21    1
    30    20    22   ar
    31    22    23   ar
    32    23    24   ar
    33     9    10    1
    34    28    29   ar
    35    29    30   ar
    36    30    25   ar
    37     6     1   ar
    38    24    18   ar
    39    10     3    1
    40    16    11    1
    41    31    35    1
    42    34    36    1
@<TRIPOS>MOLECULE
*****
 38 42 0 0 0
SMALL
GASTEIGER

@<TRIPOS>ATOM
      1 C          61.6348   88.4950   10.1872 C.ar    1  UNL1        0.1633
      2 N          62.3030   89.5396   11.0312 N.ar    1  UNL1       -0.2294
      3 C          63.0865   89.1350   12.2447 C.ar    1  UNL1        0.0794
      4 C          63.2017   87.6858   12.6142 C.ar    1  UNL1        0.0264
      5 C          62.5335   86.6412   11.7702 C.ar    1  UNL1        0.1306
      6 N          61.7500   87.0458   10.5567 N.ar    1  UNL1       -0.2122
      7 C          63.9851   87.2812   13.8277 C.3     1  UNL1        0.0519
      8 C          64.6533   88.3258   14.6716 C.3     1  UNL1        0.0973
      9 N          64.5381   89.7750   14.3021 N.pl3   1  UNL1       -0.2874
     10 C          63.7546   90.1796   13.0887 C.3     1  UNL1        0.1381
     11 N          62.6487   85.1920   12.1397 N.pl3   1  UNL1       -0.2900
     12 C          62.3905   84.7550   13.5512 C.3     1  UNL1        0.1242
     13 C          62.5057   83.3058   13.9207 C.3     1  UNL1        0.1636
     14 O          62.8792   82.2936   12.8787 O.3     1  UNL1       -0.3502
     15 C          63.1374   82.7305   11.4671 C.3     1  UNL1        0.1618
     16 C          63.0222   84.1797   11.0976 C.3     1  UNL1        0.1038
     17 C          63.2804   84.6166    9.6861 C.3     1  UNL1        0.0241
     18 C          65.2063   90.8196   15.1461 C.ar    1  UNL1        0.1349
     19 C          66.6513   91.1536   14.9216 C.ar    1  UNL1        0.0491
     20 C          67.3195   92.1983   15.7657 C.ar    1  UNL1        0.0639
     21 C          68.7645   92.5322   15.5412 C.3     1  UNL1        0.0522
     22 N          66.5427   92.9088   16.8341 N.ar    1  UNL1       -0.2283
     23 C          65.0976   92.5748   17.0586 C.ar    1  UNL1        0.1997
     24 N          64.4295   91.5302   16.2146 N.ar    1  UNL1       -0.2090
     25 C          59.2845   89.7087    6.5468 C.ar    1  UNL1        0.0516
     26 C          60.1219   90.7210    7.2707 C.ar    1  UNL1        0.0148
     27 C          60.9053   90.3164    8.4842 C.ar    1  UNL1        0.0043
     28 C          60.8513   88.8995    8.9737 C.ar    1  UNL1        0.0359
     29 C          60.0139   87.8873    8.2498 C.ar    1  UNL1        0.0043
     30 C          59.2305   88.2919    7.0364 C.ar    1  UNL1        0.0148
     31 N          58.2090   91.6352    3.2480 N.am    1  UNL1       -0.2887
     32 C          58.9924   91.2306    4.4615 C.2     1  UNL1        0.3045
     33 O          60.2673   91.9433    4.8031 O.2     1  UNL1       -0.2525
     34 N          58.5010   90.1133    5.3333 N.am    1  UNL1       -0.2683
     35 H          57.3723   91.1674    3.0238 H       1  UNL1        0.1510
     36 H          57.6642   89.6455    5.1091 H       1  UNL1        0.1564
     37 C          59.8947   92.5447    1.4927 C.3     1  UNL1        0.0230
     38 C          58.7005   92.7525    2.3762 C.3     1  UNL1        0.0910
@<TRIPOS>BOND
     1    37    38    1
     2    38    31    1
     3    31    32   am
     4    32    33    2
     5    32    34   am
     6    34    25    1
     7    25    26   ar
     8    26    27   ar
     9    27    28   ar
    10    28     1    1
    11     1     2   ar
    12     2     3   ar
    13     3     4   ar
    14     4     5   ar
    15     5    11    1
    16    11    12    1
    17    12    13    1
    18    13    14    1
    19    14    15    1
    20    15    16    1
    21    16    17    1
    22     5     6   ar
    23     4     7    1
    24     7     8    1
    25     8     9    1
    26     9    18    1
    27    18    19   ar
    28    19    20   ar
    29    20    21    1
    30    20    22   ar
    31    22    23   ar
    32    23    24   ar
    33     9    10    1
    34    28    29   ar
    35    29    30   ar
    36    30    25   ar
    37     6     1   ar
    38    24    18   ar
    39    10     3    1
    40    16    11    1
    41    31    35    1
    42    34    36    1
