@<TRIPOS>MOLECULE
*****
 31 34 0 0 0
SMALL
GASTEIGER

@<TRIPOS>ATOM
      1 C          60.8408   87.7825    8.8127 C.ar    1  UNL1        0.1518
      2 C          60.4028   89.1524    9.2389 C.ar    1  UNL1        0.0396
      3 C          61.0922   89.8389   10.3806 C.ar    1  UNL1        0.0234
      4 C          62.2197   89.1556   11.0961 C.ar    1  UNL1        0.1268
      5 C          62.6577   87.7857   10.6699 C.ar    1  UNL1        0.0376
      6 C          61.9683   87.0992    9.5282 C.ar    1  UNL1        0.0804
      7 S          62.9091   89.8421   12.2377 S.O2    1  UNL1        0.0768
      8 O          62.3049   91.1489   11.8167 O.2     1  UNL1       -0.1497
      9 O          63.5133   88.5353   12.6587 O.2     1  UNL1       -0.1497
     10 N          63.5985   90.5286   13.3794 N.pl3   1  UNL1       -0.1838
     11 C          63.2541   90.1628   14.7927 C.3     1  UNL1        0.1631
     12 C          63.9435   90.8493   15.9344 C.3     1  UNL1        0.2287
     13 O          64.9774   91.9017   15.6627 O.3     1  UNL1       -0.4722
     14 C          65.3218   92.2675   14.2493 C.ar    1  UNL1        0.1534
     15 C          66.3556   93.3198   13.9776 C.ar    1  UNL1        0.0391
     16 C          66.7000   93.6856   12.5643 C.ar    1  UNL1        0.0146
     17 C          66.0106   92.9990   11.4226 C.ar    1  UNL1        0.0592
     18 CL         66.3550   93.3648   10.0093 Cl      1  UNL1       -0.0822
     19 C          64.9767   91.9467   11.6943 C.ar    1  UNL1        0.0306
     20 C          64.6323   91.5809   13.1077 C.ar    1  UNL1        0.1036
     21 C          58.7170   86.6777    7.8034 C.3     1  UNL1        0.2525
     22 O          60.1515   87.0960    7.6711 O.3     1  UNL1       -0.4702
     23 N          62.4063   85.7293    9.1020 N.pl3   1  UNL1       -0.3316
     24 H          62.4201   85.4919    8.1467 H       1  UNL1        0.1469
     25 C          62.8234   84.7212   10.1315 C.3     1  UNL1        0.0719
     26 C          62.2894   84.8126   11.5302 C.3     1  UNL1        0.0368
     27 C          62.7064   83.8046   12.5597 C.3     1  UNL1        0.0738
     28 N          63.6575   82.7049   12.1904 N.3     1  UNL1       -0.2714
     29 C          64.0745   81.6968   13.2198 C.3     1  UNL1        0.0896
     30 C          64.1915   82.6134   10.7917 C.3     1  UNL1        0.0738
     31 C          63.7745   83.6216    9.7622 C.3     1  UNL1        0.0368
@<TRIPOS>BOND
     1    21    22    1
     2    22     1    1
     3     1     2   ar
     4     2     3   ar
     5     3     4   ar
     6     4     7    1
     7     7     8    2
     8     7     9    2
     9     7    10    1
    10    10    11    1
    11    11    12    1
    12    12    13    1
    13    13    14    1
    14    14    15   ar
    15    15    16   ar
    16    16    17   ar
    17    17    18    1
    18    17    19   ar
    19    19    20   ar
    20     4     5   ar
    21     5     6   ar
    22     6    23    1
    23    23    25    1
    24    25    26    1
    25    26    27    1
    26    27    28    1
    27    28    29    1
    28    28    30    1
    29    30    31    1
    30     6     1   ar
    31    31    25    1
    32    20    10    1
    33    20    14   ar
    34    23    24    1
@<TRIPOS>MOLECULE
*****
 31 34 0 0 0
SMALL
GASTEIGER

@<TRIPOS>ATOM
      1 C          60.0552   88.6674    8.3013 C.ar    1  UNL1        0.1518
      2 C          59.8297   87.2240    7.9612 C.ar    1  UNL1        0.0396
      3 C          60.5188   86.1509    8.7508 C.ar    1  UNL1        0.0234
      4 C          61.4335   86.5213    9.8806 C.ar    1  UNL1        0.1268
      5 C          61.6590   87.9647   10.2207 C.ar    1  UNL1        0.0376
      6 C          60.9698   89.0378    9.4310 C.ar    1  UNL1        0.0804
      7 S          62.1226   85.4482   10.6703 S.O2    1  UNL1        0.0768
      8 O          61.2998   85.8047   11.8727 O.2     1  UNL1       -0.1497
      9 O          62.9454   85.0918    9.4678 O.2     1  UNL1       -0.1497
     10 N          62.8118   84.3751   11.4599 N.pl3   1  UNL1       -0.1838
     11 C          62.7659   82.9514   10.9899 C.3     1  UNL1        0.1631
     12 C          63.4550   81.8783   11.7795 C.3     1  UNL1        0.2287
     13 O          64.1902   82.2290   13.0392 O.3     1  UNL1       -0.4722
     14 C          64.2361   83.6527   13.5092 C.ar    1  UNL1        0.1534
     15 C          64.9712   84.0033   14.7688 C.ar    1  UNL1        0.0391
     16 C          65.0172   85.4270   15.2388 C.ar    1  UNL1        0.0146
     17 C          64.3280   86.5001   14.4491 C.ar    1  UNL1        0.0592
     18 CL         64.3739   87.9238   14.9191 Cl      1  UNL1       -0.0822
     19 C          63.5929   86.1495   13.1895 C.ar    1  UNL1        0.0306
     20 C          63.5469   84.7257   12.7195 C.ar    1  UNL1        0.1036
     21 C          59.4319   89.7285    6.0131 C.3     1  UNL1        0.2525
     22 O          59.3661   89.7405    7.5116 O.3     1  UNL1       -0.4702
     23 N          61.1953   90.4813    9.7710 N.pl3   1  UNL1       -0.3316
     24 H          60.5835   91.1701    9.4240 H       1  UNL1        0.1469
     25 C          62.3530   90.8751   10.6398 C.3     1  UNL1        0.0719
     26 C          63.4946   91.6560   10.0594 C.3     1  UNL1        0.0368
     27 C          64.6523   92.0498   10.9281 C.3     1  UNL1        0.0738
     28 N          64.6683   91.6629   12.3773 N.3     1  UNL1       -0.2714
     29 C          65.8259   92.0567   13.2460 C.3     1  UNL1        0.0896
     30 C          63.5266   90.8820   12.9577 C.3     1  UNL1        0.0738
     31 C          62.3689   90.4881   12.0889 C.3     1  UNL1        0.0368
@<TRIPOS>BOND
     1    21    22    1
     2    22     1    1
     3     1     2   ar
     4     2     3   ar
     5     3     4   ar
     6     4     7    1
     7     7     8    2
     8     7     9    2
     9     7    10    1
    10    10    11    1
    11    11    12    1
    12    12    13    1
    13    13    14    1
    14    14    15   ar
    15    15    16   ar
    16    16    17   ar
    17    17    18    1
    18    17    19   ar
    19    19    20   ar
    20     4     5   ar
    21     5     6   ar
    22     6    23    1
    23    23    25    1
    24    25    26    1
    25    26    27    1
    26    27    28    1
    27    28    29    1
    28    28    30    1
    29    30    31    1
    30     6     1   ar
    31    31    25    1
    32    20    10    1
    33    20    14   ar
    34    23    24    1
@<TRIPOS>MOLECULE
*****
 31 34 0 0 0
SMALL
GASTEIGER

@<TRIPOS>ATOM
      1 C          65.8656   92.3076   14.8811 C.ar    1  UNL1        0.1518
      2 C          64.8071   91.3945   15.4251 C.ar    1  UNL1        0.0396
      3 C          63.8581   90.7055   14.4899 C.ar    1  UNL1        0.0234
      4 C          63.9675   90.9296   13.0107 C.ar    1  UNL1        0.1268
      5 C          65.0260   91.8427   12.4668 C.ar    1  UNL1        0.0376
      6 C          65.9751   92.5317   13.4020 C.ar    1  UNL1        0.0804
      7 S          63.0184   90.2407   12.0756 S.O2    1  UNL1        0.0768
      8 O          63.7862   90.7747   10.9029 O.2     1  UNL1       -0.1497
      9 O          62.2506   89.7067   13.2483 O.2     1  UNL1       -0.1497
     10 N          62.0692   89.5517   11.1404 N.pl3   1  UNL1       -0.1838
     11 C          61.1731   90.3610   10.2506 C.3     1  UNL1        0.1631
     12 C          60.2240   89.6720    9.3155 C.3     1  UNL1        0.2287
     13 O          60.1711   88.1736    9.2702 O.3     1  UNL1       -0.4722
     14 C          61.0673   87.3642   10.1600 C.ar    1  UNL1        0.1534
     15 C          61.0143   85.8659   10.1147 C.ar    1  UNL1        0.0391
     16 C          61.9105   85.0565   11.0045 C.ar    1  UNL1        0.0146
     17 C          62.8596   85.7455   11.9397 C.ar    1  UNL1        0.0592
     18 CL         63.7558   84.9362   12.8295 Cl      1  UNL1       -0.0822
     19 C          62.9126   87.2439   11.9850 C.ar    1  UNL1        0.0306
     20 C          62.0163   88.0533   11.0951 C.ar    1  UNL1        0.1036
     21 C          68.1673   92.4051   16.0823 C.3     1  UNL1        0.2525
     22 O          66.8147   92.9965   15.8163 O.3     1  UNL1       -0.4702
     23 N          67.0336   93.4448   12.8581 N.pl3   1  UNL1       -0.3316
     24 H          67.8825   93.5585   13.3435 H       1  UNL1        0.1469
     25 C          66.7986   94.1846   11.5745 C.3     1  UNL1        0.0719
     26 C          66.0964   95.5100   11.5905 C.3     1  UNL1        0.0368
     27 C          65.8614   96.2498   10.3070 C.3     1  UNL1        0.0738
     28 N          66.3286   95.6642    9.0074 N.3     1  UNL1       -0.2714
     29 C          66.0937   96.4041    7.7239 C.3     1  UNL1        0.0896
     30 C          67.0308   94.3388    8.9914 C.3     1  UNL1        0.0738
     31 C          67.2658   93.5990   10.2750 C.3     1  UNL1        0.0368
@<TRIPOS>BOND
     1    21    22    1
     2    22     1    1
     3     1     2   ar
     4     2     3   ar
     5     3     4   ar
     6     4     7    1
     7     7     8    2
     8     7     9    2
     9     7    10    1
    10    10    11    1
    11    11    12    1
    12    12    13    1
    13    13    14    1
    14    14    15   ar
    15    15    16   ar
    16    16    17   ar
    17    17    18    1
    18    17    19   ar
    19    19    20   ar
    20     4     5   ar
    21     5     6   ar
    22     6    23    1
    23    23    25    1
    24    25    26    1
    25    26    27    1
    26    27    28    1
    27    28    29    1
    28    28    30    1
    29    30    31    1
    30     6     1   ar
    31    31    25    1
    32    20    10    1
    33    20    14   ar
    34    23    24    1
@<TRIPOS>MOLECULE
*****
 31 34 0 0 0
SMALL
GASTEIGER

@<TRIPOS>ATOM
      1 C          65.0434   90.7168   14.1514 C.ar    1  UNL1        0.1518
      2 C          64.4336   89.3474   14.2063 C.ar    1  UNL1        0.0396
      3 C          63.5144   88.8913   13.1123 C.ar    1  UNL1        0.0234
      4 C          63.2048   89.8046   11.9633 C.ar    1  UNL1        0.1268
      5 C          63.8145   91.1740   11.9083 C.ar    1  UNL1        0.0376
      6 C          64.7338   91.6301   13.0024 C.ar    1  UNL1        0.0804
      7 S          62.2856   89.3485   10.8693 S.O2    1  UNL1        0.0768
      8 O          61.5173   88.5235   11.8588 O.2     1  UNL1       -0.1497
      9 O          63.0538   90.1735    9.8798 O.2     1  UNL1       -0.1497
     10 N          61.3663   88.8924    9.7752 N.pl3   1  UNL1       -0.1838
     11 C          60.2914   89.8076    9.2685 C.3     1  UNL1        0.1631
     12 C          59.3722   89.3515    8.1745 C.3     1  UNL1        0.2287
     13 O          59.5279   87.9801    7.5871 O.3     1  UNL1       -0.4722
     14 C          60.6028   87.0648    8.0938 C.ar    1  UNL1        0.1534
     15 C          60.7585   85.6934    7.5064 C.ar    1  UNL1        0.0391
     16 C          61.8335   84.7782    8.0131 C.ar    1  UNL1        0.0146
     17 C          62.7527   85.2343    9.1072 C.ar    1  UNL1        0.0592
     18 CL         63.8277   84.3190    9.6138 Cl      1  UNL1       -0.0822
     19 C          62.5970   86.6057    9.6945 C.ar    1  UNL1        0.0306
     20 C          61.5220   87.5210    9.1878 C.ar    1  UNL1        0.1036
     21 C          67.3925   91.5029   14.9346 C.3     1  UNL1        0.2525
     22 O          65.9626   91.1729   15.2454 O.3     1  UNL1       -0.4702
     23 N          65.3435   92.9995   12.9475 N.pl3   1  UNL1       -0.3316
     24 H          65.3317   93.5760   13.7455 H       1  UNL1        0.1469
     25 C          65.9714   93.4905   11.6767 C.3     1  UNL1        0.0719
     26 C          65.6808   94.8770   11.1837 C.3     1  UNL1        0.0368
     27 C          66.3086   95.3681    9.9129 C.3     1  UNL1        0.0738
     28 N          67.2270   94.4726    9.1352 N.3     1  UNL1       -0.2714
     29 C          67.8547   94.9636    7.8645 C.3     1  UNL1        0.0896
     30 C          67.5175   93.0860    9.6283 C.3     1  UNL1        0.0738
     31 C          66.8897   92.5950   10.8991 C.3     1  UNL1        0.0368
@<TRIPOS>BOND
     1    21    22    1
     2    22     1    1
     3     1     2   ar
     4     2     3   ar
     5     3     4   ar
     6     4     7    1
     7     7     8    2
     8     7     9    2
     9     7    10    1
    10    10    11    1
    11    11    12    1
    12    12    13    1
    13    13    14    1
    14    14    15   ar
    15    15    16   ar
    16    16    17   ar
    17    17    18    1
    18    17    19   ar
    19    19    20   ar
    20     4     5   ar
    21     5     6   ar
    22     6    23    1
    23    23    25    1
    24    25    26    1
    25    26    27    1
    26    27    28    1
    27    28    29    1
    28    28    30    1
    29    30    31    1
    30     6     1   ar
    31    31    25    1
    32    20    10    1
    33    20    14   ar
    34    23    24    1
@<TRIPOS>MOLECULE
*****
 31 34 0 0 0
SMALL
GASTEIGER

@<TRIPOS>ATOM
      1 C          61.8382   88.7650   10.0115 C.ar    1  UNL1        0.1518
      2 C          62.4572   90.1254    9.8846 C.ar    1  UNL1        0.0396
      3 C          63.1204   90.7612   11.0703 C.ar    1  UNL1        0.0234
      4 C          63.1646   90.0365   12.3830 C.ar    1  UNL1        0.1268
      5 C          62.5456   88.6761   12.5098 C.ar    1  UNL1        0.0376
      6 C          61.8824   88.0403   11.3241 C.ar    1  UNL1        0.0804
      7 S          63.8278   90.6723   13.5686 S.O2    1  UNL1        0.0768
      8 O          63.7698   89.3651   14.3020 O.2     1  UNL1       -0.1497
      9 O          63.8858   91.9795   12.8353 O.2     1  UNL1       -0.1497
     10 N          64.4910   91.3082   14.7544 N.pl3   1  UNL1       -0.1838
     11 C          63.7100   91.5454   16.0128 C.3     1  UNL1        0.1631
     12 C          64.3733   92.1813   17.1984 C.3     1  UNL1        0.2287
     13 O          65.8175   92.5799   17.1257 O.3     1  UNL1       -0.4722
     14 C          66.5985   92.3426   15.8672 C.ar    1  UNL1        0.1534
     15 C          68.0428   92.7412   15.7945 C.ar    1  UNL1        0.0391
     16 C          68.8238   92.5039   14.5360 C.ar    1  UNL1        0.0146
     17 C          68.1605   91.8680   13.3503 C.ar    1  UNL1        0.0592
     18 CL         68.9416   91.6308   12.0919 Cl      1  UNL1       -0.0822
     19 C          66.7163   91.4695   13.4231 C.ar    1  UNL1        0.0306
     20 C          65.9353   91.7068   14.6816 C.ar    1  UNL1        0.1036
     21 C          59.8878   88.6889    8.2968 C.3     1  UNL1        0.2525
     22 O          61.1750   88.1292    8.8258 O.3     1  UNL1       -0.4702
     23 N          61.2634   86.6799   11.4509 N.pl3   1  UNL1       -0.3316
     24 H          60.2852   86.5782   11.4070 H       1  UNL1        0.1469
     25 C          62.1349   85.4745   11.6448 C.3     1  UNL1        0.0719
     26 C          62.4333   84.9796   13.0291 C.3     1  UNL1        0.0368
     27 C          63.3048   83.7743   13.2230 C.3     1  UNL1        0.0738
     28 N          63.8779   83.0637   12.0327 N.3     1  UNL1       -0.2714
     29 C          64.7494   81.8584   12.2266 C.3     1  UNL1        0.0896
     30 C          63.5795   83.5586   10.6485 C.3     1  UNL1        0.0738
     31 C          62.7080   84.7640   10.4546 C.3     1  UNL1        0.0368
@<TRIPOS>BOND
     1    21    22    1
     2    22     1    1
     3     1     2   ar
     4     2     3   ar
     5     3     4   ar
     6     4     7    1
     7     7     8    2
     8     7     9    2
     9     7    10    1
    10    10    11    1
    11    11    12    1
    12    12    13    1
    13    13    14    1
    14    14    15   ar
    15    15    16   ar
    16    16    17   ar
    17    17    18    1
    18    17    19   ar
    19    19    20   ar
    20     4     5   ar
    21     5     6   ar
    22     6    23    1
    23    23    25    1
    24    25    26    1
    25    26    27    1
    26    27    28    1
    27    28    29    1
    28    28    30    1
    29    30    31    1
    30     6     1   ar
    31    31    25    1
    32    20    10    1
    33    20    14   ar
    34    23    24    1
@<TRIPOS>MOLECULE
*****
 31 34 0 0 0
SMALL
GASTEIGER

@<TRIPOS>ATOM
      1 C          60.3424   88.2220    9.7063 C.ar    1  UNL1        0.1518
      2 C          60.6364   89.5112    8.9981 C.ar    1  UNL1        0.0396
      3 C          61.7309   90.4078    9.4961 C.ar    1  UNL1        0.0234
      4 C          62.5314   90.0153   10.7024 C.ar    1  UNL1        0.1268
      5 C          62.2374   88.7261   11.4107 C.ar    1  UNL1        0.0376
      6 C          61.1429   87.8295   10.9125 C.ar    1  UNL1        0.0804
      7 S          63.6259   90.9120   11.2005 S.O2    1  UNL1        0.0768
      8 O          63.3707   91.8555   10.0627 O.2     1  UNL1       -0.1497
      9 O          63.8811   89.9685   12.3383 O.2     1  UNL1       -0.1497
     10 N          64.7204   91.8086   11.6986 N.pl3   1  UNL1       -0.1838
     11 C          65.5606   92.5793   10.7238 C.3     1  UNL1        0.1631
     12 C          66.6550   93.4759   11.2220 C.3     1  UNL1        0.2287
     13 O          66.9094   93.6019   12.6949 O.3     1  UNL1       -0.4722
     14 C          66.0693   92.8312   13.6697 C.ar    1  UNL1        0.1534
     15 C          66.3236   92.9571   15.1426 C.ar    1  UNL1        0.0391
     16 C          65.4835   92.1865   16.1173 C.ar    1  UNL1        0.0146
     17 C          64.3889   91.2898   15.6192 C.ar    1  UNL1        0.0592
     18 CL         63.5488   90.5192   16.5940 Cl      1  UNL1       -0.0822
     19 C          64.1346   91.1639   14.1463 C.ar    1  UNL1        0.0306
     20 C          64.9748   91.9346   13.1715 C.ar    1  UNL1        0.1036
     21 C          59.3844   86.6420    7.8798 C.3     1  UNL1        0.2525
     22 O          59.2480   87.3254    9.2082 O.3     1  UNL1       -0.4702
     23 N          60.8489   86.5403   11.6207 N.pl3   1  UNL1       -0.3316
     24 H          59.9782   86.4078   12.0607 H       1  UNL1        0.1469
     25 C          61.8816   85.4529   11.6586 C.3     1  UNL1        0.0719
     26 C          62.4538   84.9172   10.3798 C.3     1  UNL1        0.0368
     27 C          63.4865   83.8300   10.4176 C.3     1  UNL1        0.0738
     28 N          63.9469   83.2784   11.7344 N.3     1  UNL1       -0.2714
     29 C          64.9795   82.1911   11.7722 C.3     1  UNL1        0.0896
     30 C          63.3747   83.8141   13.0133 C.3     1  UNL1        0.0738
     31 C          62.3420   84.9014   12.9754 C.3     1  UNL1        0.0368
@<TRIPOS>BOND
     1    21    22    1
     2    22     1    1
     3     1     2   ar
     4     2     3   ar
     5     3     4   ar
     6     4     7    1
     7     7     8    2
     8     7     9    2
     9     7    10    1
    10    10    11    1
    11    11    12    1
    12    12    13    1
    13    13    14    1
    14    14    15   ar
    15    15    16   ar
    16    16    17   ar
    17    17    18    1
    18    17    19   ar
    19    19    20   ar
    20     4     5   ar
    21     5     6   ar
    22     6    23    1
    23    23    25    1
    24    25    26    1
    25    26    27    1
    26    27    28    1
    27    28    29    1
    28    28    30    1
    29    30    31    1
    30     6     1   ar
    31    31    25    1
    32    20    10    1
    33    20    14   ar
    34    23    24    1
@<TRIPOS>MOLECULE
*****
 31 34 0 0 0
SMALL
GASTEIGER

@<TRIPOS>ATOM
      1 C          63.8555   82.2853   12.6135 C.ar    1  UNL1        0.1518
      2 C          63.5029   82.0903   11.1686 C.ar    1  UNL1        0.0396
      3 C          62.8507   83.2005   10.3993 C.ar    1  UNL1        0.0234
      4 C          62.5510   84.5059   11.0748 C.ar    1  UNL1        0.1268
      5 C          62.9036   84.7009   12.5197 C.ar    1  UNL1        0.0376
      6 C          63.5558   83.5906   13.2890 C.ar    1  UNL1        0.0804
      7 S          61.8988   85.6161   10.3055 S.O2    1  UNL1        0.0768
      8 O          62.6726   85.2230    9.0821 O.2     1  UNL1       -0.1497
      9 O          61.1250   86.0093   11.5289 O.2     1  UNL1       -0.1497
     10 N          61.2465   86.7265    9.5362 N.pl3   1  UNL1       -0.1838
     11 C          60.3173   86.4083    8.4025 C.3     1  UNL1        0.1631
     12 C          59.6650   87.5186    7.6332 C.3     1  UNL1        0.2287
     13 O          59.9420   88.9470    7.9977 O.3     1  UNL1       -0.4722
     14 C          60.8712   89.2652    9.1313 C.ar    1  UNL1        0.1534
     15 C          61.1482   90.6937    9.4958 C.ar    1  UNL1        0.0391
     16 C          62.0775   91.0118   10.6294 C.ar    1  UNL1        0.0146
     17 C          62.7297   89.9015   11.3988 C.ar    1  UNL1        0.0592
     18 CL         63.6590   90.2197   12.5325 Cl      1  UNL1       -0.0822
     19 C          62.4528   88.4730   11.0343 C.ar    1  UNL1        0.0306
     20 C          61.5235   88.1549    9.9006 C.ar    1  UNL1        0.1036
     21 C          63.6641   80.1482   14.0785 C.3     1  UNL1        0.2525
     22 O          64.5077   81.1751   13.3828 O.3     1  UNL1       -0.4702
     23 N          63.9084   83.7856   14.7339 N.pl3   1  UNL1       -0.3316
     24 H          64.2727   83.0356   15.2573 H       1  UNL1        0.1469
     25 C          63.7058   85.1235   15.3814 C.3     1  UNL1        0.0719
     26 C          62.8303   85.2454   16.5932 C.3     1  UNL1        0.0368
     27 C          62.6277   86.5832   17.2406 C.3     1  UNL1        0.0738
     28 N          63.3008   87.7992   16.6762 N.3     1  UNL1       -0.2714
     29 C          63.0982   89.1370   17.3237 C.3     1  UNL1        0.0896
     30 C          64.1763   87.6773   15.4644 C.3     1  UNL1        0.0738
     31 C          64.3789   86.3394   14.8170 C.3     1  UNL1        0.0368
@<TRIPOS>BOND
     1    21    22    1
     2    22     1    1
     3     1     2   ar
     4     2     3   ar
     5     3     4   ar
     6     4     7    1
     7     7     8    2
     8     7     9    2
     9     7    10    1
    10    10    11    1
    11    11    12    1
    12    12    13    1
    13    13    14    1
    14    14    15   ar
    15    15    16   ar
    16    16    17   ar
    17    17    18    1
    18    17    19   ar
    19    19    20   ar
    20     4     5   ar
    21     5     6   ar
    22     6    23    1
    23    23    25    1
    24    25    26    1
    25    26    27    1
    26    27    28    1
    27    28    29    1
    28    28    30    1
    29    30    31    1
    30     6     1   ar
    31    31    25    1
    32    20    10    1
    33    20    14   ar
    34    23    24    1
@<TRIPOS>MOLECULE
*****
 31 34 0 0 0
SMALL
GASTEIGER

@<TRIPOS>ATOM
      1 C          60.8321   88.6406    9.0516 C.ar    1  UNL1        0.1518
      2 C          60.4646   87.1865    9.0777 C.ar    1  UNL1        0.0396
      3 C          61.0312   86.2886   10.1373 C.ar    1  UNL1        0.0234
      4 C          61.9653   86.8448   11.1708 C.ar    1  UNL1        0.1268
      5 C          62.3328   88.2989   11.1447 C.ar    1  UNL1        0.0376
      6 C          61.7661   89.1968   10.0850 C.ar    1  UNL1        0.0804
      7 S          62.5319   85.9470   12.2304 S.O2    1  UNL1        0.0768
      8 O          63.3894   87.0733   12.7264 O.2     1  UNL1       -0.1497
      9 O          61.6744   84.8206   11.7345 O.2     1  UNL1       -0.1497
     10 N          63.0985   85.0490   13.2901 N.pl3   1  UNL1       -0.1838
     11 C          63.4686   85.6114   14.6305 C.3     1  UNL1        0.1631
     12 C          64.0351   84.7135   15.6900 C.3     1  UNL1        0.2287
     13 O          64.2316   83.2532   15.4092 O.3     1  UNL1       -0.4722
     14 C          63.8615   82.6908   14.0688 C.ar    1  UNL1        0.1534
     15 C          64.0579   81.2305   13.7880 C.ar    1  UNL1        0.0391
     16 C          63.6878   80.6681   12.4476 C.ar    1  UNL1        0.0146
     17 C          63.1212   81.5660   11.3879 C.ar    1  UNL1        0.0592
     18 CL         62.7511   81.0036   10.0475 Cl      1  UNL1       -0.0822
     19 C          62.9248   83.0263   11.6688 C.ar    1  UNL1        0.0306
     20 C          63.2949   83.5887   13.0092 C.ar    1  UNL1        0.1036
     21 C          59.2807   88.9973    6.9983 C.3     1  UNL1        0.2525
     22 O          60.2655   89.5384    7.9920 O.3     1  UNL1       -0.4702
     23 N          62.1336   90.6508   10.0589 N.pl3   1  UNL1       -0.3316
     24 H          61.6539   91.2691    9.4616 H       1  UNL1        0.1469
     25 C          63.2321   91.1628   10.9429 C.3     1  UNL1        0.0719
     26 C          63.2498   90.8065   12.3999 C.3     1  UNL1        0.0368
     27 C          64.3481   91.3185   13.2839 C.3     1  UNL1        0.0738
     28 N          65.4289   92.1867   12.7109 N.3     1  UNL1       -0.2714
     29 C          66.5273   92.6986   13.5949 C.3     1  UNL1        0.0896
     30 C          65.4112   92.5429   11.2539 C.3     1  UNL1        0.0738
     31 C          64.3128   92.0309   10.3699 C.3     1  UNL1        0.0368
@<TRIPOS>BOND
     1    21    22    1
     2    22     1    1
     3     1     2   ar
     4     2     3   ar
     5     3     4   ar
     6     4     7    1
     7     7     8    2
     8     7     9    2
     9     7    10    1
    10    10    11    1
    11    11    12    1
    12    12    13    1
    13    13    14    1
    14    14    15   ar
    15    15    16   ar
    16    16    17   ar
    17    17    18    1
    18    17    19   ar
    19    19    20   ar
    20     4     5   ar
    21     5     6   ar
    22     6    23    1
    23    23    25    1
    24    25    26    1
    25    26    27    1
    26    27    28    1
    27    28    29    1
    28    28    30    1
    29    30    31    1
    30     6     1   ar
    31    31    25    1
    32    20    10    1
    33    20    14   ar
    34    23    24    1
@<TRIPOS>MOLECULE
*****
 31 34 0 0 0
SMALL
GASTEIGER

@<TRIPOS>ATOM
      1 C          63.1290   87.1966   17.2293 C.ar    1  UNL1        0.1518
      2 C          62.5550   88.5824   17.2303 C.ar    1  UNL1        0.0396
      3 C          62.7317   89.4683   16.0328 C.ar    1  UNL1        0.0234
      4 C          63.4825   88.9683   14.8343 C.ar    1  UNL1        0.1268
      5 C          64.0565   87.5825   14.8333 C.ar    1  UNL1        0.0376
      6 C          63.8797   86.6966   16.0308 C.ar    1  UNL1        0.0804
      7 S          63.6593   89.8542   13.6368 S.O2    1  UNL1        0.0768
      8 O          63.8852   88.6464   12.7766 O.2     1  UNL1       -0.1497
      9 O          63.4333   91.0621   14.4970 O.2     1  UNL1       -0.1497
     10 N          63.8360   90.7402   12.4394 N.pl3   1  UNL1       -0.1838
     11 C          63.0481   90.4786   11.1901 C.3     1  UNL1        0.1631
     12 C          63.2249   91.3646    9.9927 C.3     1  UNL1        0.2287
     13 O          64.1896   92.5121   10.0446 O.3     1  UNL1       -0.4722
     14 C          64.9775   92.7736   11.2939 C.ar    1  UNL1        0.1534
     15 C          65.9422   93.9211   11.3458 C.ar    1  UNL1        0.0391
     16 C          66.7300   94.1826   12.5950 C.ar    1  UNL1        0.0146
     17 C          66.5533   93.2967   13.7925 C.ar    1  UNL1        0.0592
     18 CL         67.3412   93.5582   15.0418 Cl      1  UNL1       -0.0822
     19 C          65.5886   92.1492   13.7406 C.ar    1  UNL1        0.0306
     20 C          64.8007   91.8877   12.4912 C.ar    1  UNL1        0.1036
     21 C          62.7310   86.9159   19.7813 C.3     1  UNL1        0.2525
     22 O          62.9522   86.3107   18.4267 O.3     1  UNL1       -0.4702
     23 N          64.4538   85.3108   16.0298 N.pl3   1  UNL1       -0.3316
     24 H          65.1341   85.0593   16.6955 H       1  UNL1        0.1469
     25 C          63.9911   84.3081   15.0145 C.3     1  UNL1        0.0719
     26 C          64.7449   84.1405   13.7285 C.3     1  UNL1        0.0368
     27 C          64.2823   83.1379   12.7133 C.3     1  UNL1        0.0738
     28 N          63.0660   82.3029   12.9840 N.3     1  UNL1       -0.2714
     29 C          62.6034   81.3003   11.9687 C.3     1  UNL1        0.0896
     30 C          62.3122   82.4705   14.2700 C.3     1  UNL1        0.0738
     31 C          62.7748   83.4732   15.2852 C.3     1  UNL1        0.0368
@<TRIPOS>BOND
     1    21    22    1
     2    22     1    1
     3     1     2   ar
     4     2     3   ar
     5     3     4   ar
     6     4     7    1
     7     7     8    2
     8     7     9    2
     9     7    10    1
    10    10    11    1
    11    11    12    1
    12    12    13    1
    13    13    14    1
    14    14    15   ar
    15    15    16   ar
    16    16    17   ar
    17    17    18    1
    18    17    19   ar
    19    19    20   ar
    20     4     5   ar
    21     5     6   ar
    22     6    23    1
    23    23    25    1
    24    25    26    1
    25    26    27    1
    26    27    28    1
    27    28    29    1
    28    28    30    1
    29    30    31    1
    30     6     1   ar
    31    31    25    1
    32    20    10    1
    33    20    14   ar
    34    23    24    1
