@<TRIPOS>MOLECULE
*****
 33 37 0 0 0
SMALL
GASTEIGER

@<TRIPOS>ATOM
      1 O          63.4676   87.4040   12.9722 O.2     1  UNL1       -0.2698
      2 C          62.7695   86.6677   11.8675 C.2     1  UNL1        0.2507
      3 N          61.7015   87.3526   11.0675 N.am    1  UNL1       -0.2723
      4 C          61.0034   86.6163    9.9627 C.3     1  UNL1        0.1257
      5 C          59.9353   87.3013    9.1627 C.3     1  UNL1        0.1637
      6 O          59.5654   88.7227    9.4674 O.3     1  UNL1       -0.3502
      7 C          60.2634   89.4590   10.5721 C.3     1  UNL1        0.1622
      8 C          61.3315   88.7741   11.3722 C.3     1  UNL1        0.1096
      9 C          63.1395   85.2463   11.5628 C.ar    1  UNL1        0.0738
     10 C          63.2804   84.7967   10.1387 C.ar    1  UNL1        0.0061
     11 C          63.6504   83.3754    9.8340 C.ar    1  UNL1        0.0011
     12 C          63.8795   82.4036   10.9534 C.ar    1  UNL1        0.0130
     13 C          63.7386   82.8531   12.3775 C.ar    1  UNL1        0.0771
     14 CL         63.9677   81.8812   13.4969 Cl      1  UNL1       -0.0806
     15 C          63.3686   84.2745   12.6822 C.ar    1  UNL1        0.1177
     16 N          63.2277   84.7240   14.1063 N.ar    1  UNL1       -0.1468
     17 N          61.9770   84.6589   14.9318 N.ar    1  UNL1       -0.1447
     18 C          62.2891   85.2122   16.2906 C.ar    1  UNL1        0.1446
     19 C          63.7327   85.6192   16.3050 C.ar    1  UNL1        0.1446
     20 N          64.3128   85.3175   14.9550 N.ar    1  UNL1       -0.1447
     21 C          62.0296   89.5104   12.4769 C.3     1  UNL1        0.0496
     22 C          63.1395   90.4670   12.1563 C.ar    1  UNL1       -0.0083
     23 C          64.1119   90.8725   13.2239 C.ar    1  UNL1        0.0175
     24 C          65.2219   91.8292   12.9033 C.ar    1  UNL1        0.1026
     25 C          65.3595   92.3803   11.5150 C.ar    1  UNL1        0.0218
     26 C          64.3870   91.9747   10.4473 C.ar    1  UNL1        0.0127
     27 C          63.2770   91.0181   10.7680 C.ar    1  UNL1        0.0538
     28 CL         62.3046   90.6126    9.7003 Cl      1  UNL1       -0.0826
     29 N          66.1944   92.2347   13.9709 N.ar    1  UNL1       -0.1478
     30 N          67.6793   92.3681   13.8064 N.ar    1  UNL1       -0.1447
     31 C          68.2553   92.7939   15.1243 C.ar    1  UNL1        0.1446
     32 C          67.1263   92.9237   16.1034 C.ar    1  UNL1        0.1446
     33 N          65.8526   92.5781   15.3905 N.ar    1  UNL1       -0.1447
@<TRIPOS>BOND
     1     1     2    2
     2     2     9    1
     3     9    10   ar
     4    10    11   ar
     5    11    12   ar
     6    12    13   ar
     7    13    14    1
     8    13    15   ar
     9    15    16    1
    10    16    17   ar
    11    17    18   ar
    12    18    19   ar
    13    19    20   ar
    14     2     3   am
    15     3     4    1
    16     4     5    1
    17     5     6    1
    18     6     7    1
    19     7     8    1
    20     8    21    1
    21    21    22    1
    22    22    23   ar
    23    23    24   ar
    24    24    29    1
    25    29    30   ar
    26    30    31   ar
    27    31    32   ar
    28    32    33   ar
    29    24    25   ar
    30    25    26   ar
    31    26    27   ar
    32    27    28    1
    33    15     9   ar
    34    20    16   ar
    35     8     3    1
    36    27    22   ar
    37    33    29   ar
@<TRIPOS>MOLECULE
*****
 33 37 0 0 0
SMALL
GASTEIGER

@<TRIPOS>ATOM
      1 O          63.3090   87.4200   13.2697 O.2     1  UNL1       -0.2698
      2 C          62.7734   87.1387   11.8972 C.2     1  UNL1        0.2507
      3 N          62.0053   88.1957   11.1606 N.am    1  UNL1       -0.2723
      4 C          61.4697   87.9144    9.7880 C.3     1  UNL1        0.1257
      5 C          60.7016   88.9715    9.0514 C.3     1  UNL1        0.1637
      6 O          60.4691   90.3099    9.6874 O.3     1  UNL1       -0.3502
      7 C          61.0046   90.5913   11.0600 C.3     1  UNL1        0.1622
      8 C          61.7727   89.5342   11.7966 C.3     1  UNL1        0.1096
      9 C          63.0060   85.8002   11.2612 C.ar    1  UNL1        0.0738
     10 C          62.9980   85.6682    9.7670 C.ar    1  UNL1        0.0061
     11 C          63.2305   84.3298    9.1310 C.ar    1  UNL1        0.0011
     12 C          63.4711   83.1234    9.9892 C.ar    1  UNL1        0.0130
     13 C          63.4792   83.2553   11.4833 C.ar    1  UNL1        0.0771
     14 CL         63.7198   82.0487   12.3415 Cl      1  UNL1       -0.0806
     15 C          63.2466   84.5937   12.1193 C.ar    1  UNL1        0.1177
     16 N          63.2546   84.7256   13.6135 N.ar    1  UNL1       -0.1468
     17 N          64.4529   85.0208   14.4661 N.ar    1  UNL1       -0.1447
     18 C          64.0047   85.0632   15.8970 C.ar    1  UNL1        0.1446
     19 C          62.5293   84.7942   15.9287 C.ar    1  UNL1        0.1446
     20 N          62.0658   84.5856   14.5174 N.ar    1  UNL1       -0.1447
     21 C          62.3083   89.8156   13.1691 C.3     1  UNL1        0.0496
     22 C          63.6011   90.5585   13.3320 C.ar    1  UNL1       -0.0083
     23 C          64.1676   91.3388   12.1830 C.ar    1  UNL1        0.0175
     24 C          65.4605   92.0818   12.3458 C.ar    1  UNL1        0.1026
     25 C          66.1869   92.0445   13.6577 C.ar    1  UNL1        0.0218
     26 C          65.6203   91.2642   14.8068 C.ar    1  UNL1        0.0127
     27 C          64.3275   90.5213   14.6439 C.ar    1  UNL1        0.0538
     28 CL         63.7610   89.7410   15.7929 Cl      1  UNL1       -0.0826
     29 N          66.0270   92.8620   11.1968 N.ar    1  UNL1       -0.1478
     30 N          67.1545   92.4286   10.3075 N.ar    1  UNL1       -0.1447
     31 C          67.3898   93.5113    9.2964 C.ar    1  UNL1        0.1446
     32 C          66.4078   94.6140    9.5608 C.ar    1  UNL1        0.1446
     33 N          65.5655   94.2126   10.7354 N.ar    1  UNL1       -0.1447
@<TRIPOS>BOND
     1     1     2    2
     2     2     9    1
     3     9    10   ar
     4    10    11   ar
     5    11    12   ar
     6    12    13   ar
     7    13    14    1
     8    13    15   ar
     9    15    16    1
    10    16    17   ar
    11    17    18   ar
    12    18    19   ar
    13    19    20   ar
    14     2     3   am
    15     3     4    1
    16     4     5    1
    17     5     6    1
    18     6     7    1
    19     7     8    1
    20     8    21    1
    21    21    22    1
    22    22    23   ar
    23    23    24   ar
    24    24    29    1
    25    29    30   ar
    26    30    31   ar
    27    31    32   ar
    28    32    33   ar
    29    24    25   ar
    30    25    26   ar
    31    26    27   ar
    32    27    28    1
    33    15     9   ar
    34    20    16   ar
    35     8     3    1
    36    27    22   ar
    37    33    29   ar
@<TRIPOS>MOLECULE
*****
 33 37 0 0 0
SMALL
GASTEIGER

@<TRIPOS>ATOM
      1 O          63.5320   87.9770   11.9550 O.2     1  UNL1       -0.2698
      2 C          63.5317   87.3714   13.3273 C.2     1  UNL1        0.2507
      3 N          63.4007   88.2510   14.5352 N.am    1  UNL1       -0.2723
      4 C          63.4004   87.6454   15.9075 C.3     1  UNL1        0.1257
      5 C          63.2694   88.5251   17.1155 C.3     1  UNL1        0.1637
      6 O          63.1387   90.0103   16.9511 O.3     1  UNL1       -0.3502
      7 C          63.1390   90.6159   15.5787 C.3     1  UNL1        0.1622
      8 C          63.2700   89.7363   14.3708 C.3     1  UNL1        0.1096
      9 C          63.6624   85.8861   13.4916 C.ar    1  UNL1        0.0738
     10 C          64.4036   85.3242   14.6684 C.ar    1  UNL1        0.0061
     11 C          64.5344   83.8390   14.8328 C.ar    1  UNL1        0.0011
     12 C          63.9239   82.9158   13.8204 C.ar    1  UNL1        0.0130
     13 C          63.1827   83.4777   12.6436 C.ar    1  UNL1        0.0771
     14 CL         62.5722   82.5544   11.6312 Cl      1  UNL1       -0.0806
     15 C          63.0519   84.9629   12.4793 C.ar    1  UNL1        0.1177
     16 N          62.3107   85.5249   11.3025 N.ar    1  UNL1       -0.1468
     17 N          61.0444   86.3269   11.3592 N.ar    1  UNL1       -0.1447
     18 C          60.6567   86.6812    9.9542 C.ar    1  UNL1        0.1446
     19 C          61.6834   86.0982    9.0290 C.ar    1  UNL1        0.1446
     20 N          62.7056   85.3836    9.8623 N.ar    1  UNL1       -0.1447
     21 C          63.2703   90.3419   12.9985 C.3     1  UNL1        0.0496
     22 C          64.3733   91.2726   12.5897 C.ar    1  UNL1       -0.0083
     23 C          65.4469   91.6398   13.5707 C.ar    1  UNL1        0.0175
     24 C          66.5500   92.5706   13.1619 C.ar    1  UNL1        0.1026
     25 C          66.5793   93.1340   11.7720 C.ar    1  UNL1        0.0218
     26 C          65.5056   92.7667   10.7910 C.ar    1  UNL1        0.0127
     27 C          64.4026   91.8360   11.1998 C.ar    1  UNL1        0.0538
     28 CL         63.3290   91.4688   10.2188 Cl      1  UNL1       -0.0826
     29 N          67.6236   92.9378   14.1429 N.ar    1  UNL1       -0.1478
     30 N          69.0426   92.4523   14.1197 N.ar    1  UNL1       -0.1447
     31 C          69.7628   93.0695   15.2818 C.ar    1  UNL1        0.1446
     32 C          68.7888   93.9365   16.0232 C.ar    1  UNL1        0.1446
     33 N          67.4667   93.8551   15.3193 N.ar    1  UNL1       -0.1447
@<TRIPOS>BOND
     1     1     2    2
     2     2     9    1
     3     9    10   ar
     4    10    11   ar
     5    11    12   ar
     6    12    13   ar
     7    13    14    1
     8    13    15   ar
     9    15    16    1
    10    16    17   ar
    11    17    18   ar
    12    18    19   ar
    13    19    20   ar
    14     2     3   am
    15     3     4    1
    16     4     5    1
    17     5     6    1
    18     6     7    1
    19     7     8    1
    20     8    21    1
    21    21    22    1
    22    22    23   ar
    23    23    24   ar
    24    24    29    1
    25    29    30   ar
    26    30    31   ar
    27    31    32   ar
    28    32    33   ar
    29    24    25   ar
    30    25    26   ar
    31    26    27   ar
    32    27    28    1
    33    15     9   ar
    34    20    16   ar
    35     8     3    1
    36    27    22   ar
    37    33    29   ar
@<TRIPOS>MOLECULE
*****
 33 37 0 0 0
SMALL
GASTEIGER

@<TRIPOS>ATOM
      1 O          62.9461   87.8125   12.5726 O.2     1  UNL1       -0.2698
      2 C          62.7372   88.9708   11.6427 C.2     1  UNL1        0.2507
      3 N          61.6906   88.8928   10.5709 N.am    1  UNL1       -0.2723
      4 C          61.4817   90.0511    9.6410 C.3     1  UNL1        0.1257
      5 C          60.4351   89.9731    8.5692 C.3     1  UNL1        0.1637
      6 O          59.5976   88.7368    8.4274 O.3     1  UNL1       -0.3502
      7 C          59.8065   87.5786    9.3573 C.3     1  UNL1        0.1622
      8 C          60.8530   87.6565   10.4290 C.3     1  UNL1        0.1096
      9 C          63.5748   90.2071   11.7846 C.ar    1  UNL1        0.0738
     10 C          63.8618   91.0603   10.5847 C.ar    1  UNL1        0.0061
     11 C          64.6993   92.2965   10.7266 C.ar    1  UNL1        0.0011
     12 C          65.2499   92.6795   12.0683 C.ar    1  UNL1        0.0130
     13 C          64.9629   91.8263   13.2681 C.ar    1  UNL1        0.0771
     14 CL         65.5135   92.2093   14.6098 Cl      1  UNL1       -0.0806
     15 C          64.1253   90.5900   13.1263 C.ar    1  UNL1        0.1177
     16 N          63.8383   89.7368   14.3261 N.ar    1  UNL1       -0.1468
     17 N          62.8114   90.0179   15.3826 N.ar    1  UNL1       -0.1447
     18 C          62.8662   88.9075   16.3896 C.ar    1  UNL1        0.1446
     19 C          63.9271   87.9400   15.9554 C.ar    1  UNL1        0.1446
     20 N          64.5279   88.4526   14.6801 N.ar    1  UNL1       -0.1447
     21 C          61.0620   86.4982   11.3589 C.3     1  UNL1        0.0496
     22 C          61.9588   85.3654   10.9561 C.ar    1  UNL1       -0.0083
     23 C          62.1057   84.1705   11.8509 C.ar    1  UNL1        0.0175
     24 C          63.0026   83.0376   11.4481 C.ar    1  UNL1        0.1026
     25 C          63.7525   83.0996   10.1505 C.ar    1  UNL1        0.0218
     26 C          63.6056   84.2945    9.2557 C.ar    1  UNL1        0.0127
     27 C          62.7088   85.4274    9.6585 C.ar    1  UNL1        0.0538
     28 CL         62.5619   86.6222    8.7637 Cl      1  UNL1       -0.0826
     29 N          63.1495   81.8427   12.3429 N.ar    1  UNL1       -0.1478
     30 N          62.5163   80.4995   12.1311 N.ar    1  UNL1       -0.1447
     31 C          62.9308   79.6079   13.2639 C.ar    1  UNL1        0.1446
     32 C          63.8202   80.4001   14.1758 C.ar    1  UNL1        0.1446
     33 N          63.9553   81.7813   13.6066 N.ar    1  UNL1       -0.1447
@<TRIPOS>BOND
     1     1     2    2
     2     2     9    1
     3     9    10   ar
     4    10    11   ar
     5    11    12   ar
     6    12    13   ar
     7    13    14    1
     8    13    15   ar
     9    15    16    1
    10    16    17   ar
    11    17    18   ar
    12    18    19   ar
    13    19    20   ar
    14     2     3   am
    15     3     4    1
    16     4     5    1
    17     5     6    1
    18     6     7    1
    19     7     8    1
    20     8    21    1
    21    21    22    1
    22    22    23   ar
    23    23    24   ar
    24    24    29    1
    25    29    30   ar
    26    30    31   ar
    27    31    32   ar
    28    32    33   ar
    29    24    25   ar
    30    25    26   ar
    31    26    27   ar
    32    27    28    1
    33    15     9   ar
    34    20    16   ar
    35     8     3    1
    36    27    22   ar
    37    33    29   ar
@<TRIPOS>MOLECULE
*****
 33 37 0 0 0
SMALL
GASTEIGER

@<TRIPOS>ATOM
      1 O          60.7265   92.7357   -2.4894 O.2     1  UNL1       -0.2698
      2 C          59.4087   93.4499   -2.5476 C.2     1  UNL1        0.2507
      3 N          59.1289   94.5852   -1.6081 N.am    1  UNL1       -0.2723
      4 C          57.8111   95.2995   -1.6663 C.3     1  UNL1        0.1257
      5 C          57.5313   96.4348   -0.7267 C.3     1  UNL1        0.1637
      6 O          58.5692   96.8559    0.2710 O.3     1  UNL1       -0.3502
      7 C          59.8870   96.1416    0.3292 C.3     1  UNL1        0.1622
      8 C          60.1668   95.0063   -0.6104 C.3     1  UNL1        0.1096
      9 C          58.3708   93.0288   -3.5454 C.ar    1  UNL1        0.0738
     10 C          57.3648   91.9770   -3.1825 C.ar    1  UNL1        0.0061
     11 C          56.3269   91.5558   -4.1802 C.ar    1  UNL1        0.0011
     12 C          56.2950   92.1866   -5.5407 C.ar    1  UNL1        0.0130
     13 C          57.3010   93.2384   -5.9036 C.ar    1  UNL1        0.0771
     14 CL         57.2690   93.8691   -7.2642 Cl      1  UNL1       -0.0806
     15 C          58.3388   93.6595   -4.9059 C.ar    1  UNL1        0.1177
     16 N          59.3448   94.7113   -5.2688 N.ar    1  UNL1       -0.1468
     17 N          59.2228   96.1807   -4.9928 N.ar    1  UNL1       -0.1447
     18 C          60.4520   96.8560   -5.5248 C.ar    1  UNL1        0.1446
     19 C          61.3337   95.8040   -6.1296 C.ar    1  UNL1        0.1446
     20 N          60.6495   94.4786   -5.9714 N.ar    1  UNL1       -0.1447
     21 C          61.4846   94.2921   -0.5522 C.3     1  UNL1        0.0496
     22 C          61.8704   93.5292    0.6803 C.ar    1  UNL1       -0.0083
     23 C          60.8151   93.0909    1.6520 C.ar    1  UNL1        0.0175
     24 C          61.2009   92.3279    2.8846 C.ar    1  UNL1        0.1026
     25 C          62.6419   92.0033    3.1453 C.ar    1  UNL1        0.0218
     26 C          63.6972   92.4417    2.1736 C.ar    1  UNL1        0.0127
     27 C          63.3114   93.2046    0.9411 C.ar    1  UNL1        0.0538
     28 CL         64.3667   93.6429   -0.0306 Cl      1  UNL1       -0.0826
     29 N          60.1456   91.8896    3.8563 N.ar    1  UNL1       -0.1478
     30 N          60.3253   90.8928    4.9627 N.ar    1  UNL1       -0.1447
     31 C          59.0161   90.7582    5.6824 C.ar    1  UNL1        0.1446
     32 C          58.0273   91.6718    5.0208 C.ar    1  UNL1        0.1446
     33 N          58.7254   92.3710    3.8922 N.ar    1  UNL1       -0.1447
@<TRIPOS>BOND
     1     1     2    2
     2     2     9    1
     3     9    10   ar
     4    10    11   ar
     5    11    12   ar
     6    12    13   ar
     7    13    14    1
     8    13    15   ar
     9    15    16    1
    10    16    17   ar
    11    17    18   ar
    12    18    19   ar
    13    19    20   ar
    14     2     3   am
    15     3     4    1
    16     4     5    1
    17     5     6    1
    18     6     7    1
    19     7     8    1
    20     8    21    1
    21    21    22    1
    22    22    23   ar
    23    23    24   ar
    24    24    29    1
    25    29    30   ar
    26    30    31   ar
    27    31    32   ar
    28    32    33   ar
    29    24    25   ar
    30    25    26   ar
    31    26    27   ar
    32    27    28    1
    33    15     9   ar
    34    20    16   ar
    35     8     3    1
    36    27    22   ar
    37    33    29   ar
@<TRIPOS>MOLECULE
*****
 33 37 0 0 0
SMALL
GASTEIGER

@<TRIPOS>ATOM
      1 O          62.4958   92.5602   -1.0547 O.2     1  UNL1       -0.2698
      2 C          62.8983   93.2044    0.2388 C.2     1  UNL1        0.2507
      3 N          63.7758   94.4209    0.2296 N.am    1  UNL1       -0.2723
      4 C          64.1783   95.0651    1.5230 C.3     1  UNL1        0.1257
      5 C          65.0558   96.2816    1.5138 C.3     1  UNL1        0.1637
      6 O          65.5308   96.8539    0.2112 O.3     1  UNL1       -0.3502
      7 C          65.1283   96.2097   -1.0822 C.3     1  UNL1        0.1622
      8 C          64.2508   94.9932   -1.0731 C.3     1  UNL1        0.1096
      9 C          62.4233   92.6320    1.5414 C.ar    1  UNL1        0.0738
     10 C          63.3445   91.7858    2.3692 C.ar    1  UNL1        0.0061
     11 C          62.8696   91.2134    3.6718 C.ar    1  UNL1        0.0011
     12 C          61.4734   91.4873    4.1466 C.ar    1  UNL1        0.0130
     13 C          60.5521   92.3336    3.3189 C.ar    1  UNL1        0.0771
     14 CL         59.1558   92.6075    3.7938 Cl      1  UNL1       -0.0806
     15 C          61.0271   92.9059    2.0163 C.ar    1  UNL1        0.1177
     16 N          60.1058   93.7521    1.1885 N.ar    1  UNL1       -0.1468
     17 N          60.1007   95.2509    1.1286 N.ar    1  UNL1       -0.1447
     18 C          59.0197   95.6733    0.1784 C.ar    1  UNL1        0.1446
     19 C          58.3566   94.4355   -0.3490 C.ar    1  UNL1        0.1446
     20 N          59.0279   93.2482    0.2753 N.ar    1  UNL1       -0.1447
     21 C          63.8483   94.3490   -2.3665 C.3     1  UNL1        0.0496
     22 C          62.9270   95.0672   -3.3073 C.ar    1  UNL1       -0.0083
     23 C          61.4459   95.0431   -3.0709 C.ar    1  UNL1        0.0175
     24 C          60.5245   95.7614   -4.0117 C.ar    1  UNL1        0.1026
     25 C          61.0841   96.5038   -5.1889 C.ar    1  UNL1        0.0218
     26 C          62.5652   96.5279   -5.4252 C.ar    1  UNL1        0.0127
     27 C          63.4866   95.8096   -4.4844 C.ar    1  UNL1        0.0538
     28 CL         64.9676   95.8337   -4.7208 Cl      1  UNL1       -0.0826
     29 N          59.0434   95.7373   -3.7754 N.ar    1  UNL1       -0.1478
     30 N          58.1216   94.5920   -4.0731 N.ar    1  UNL1       -0.1447
     31 C          56.7326   95.0011   -3.6815 C.ar    1  UNL1        0.1446
     32 C          56.7960   96.3993   -3.1418 C.ar    1  UNL1        0.1446
     33 N          58.2241   96.8542   -3.1998 N.ar    1  UNL1       -0.1447
@<TRIPOS>BOND
     1     1     2    2
     2     2     9    1
     3     9    10   ar
     4    10    11   ar
     5    11    12   ar
     6    12    13   ar
     7    13    14    1
     8    13    15   ar
     9    15    16    1
    10    16    17   ar
    11    17    18   ar
    12    18    19   ar
    13    19    20   ar
    14     2     3   am
    15     3     4    1
    16     4     5    1
    17     5     6    1
    18     6     7    1
    19     7     8    1
    20     8    21    1
    21    21    22    1
    22    22    23   ar
    23    23    24   ar
    24    24    29    1
    25    29    30   ar
    26    30    31   ar
    27    31    32   ar
    28    32    33   ar
    29    24    25   ar
    30    25    26   ar
    31    26    27   ar
    32    27    28    1
    33    15     9   ar
    34    20    16   ar
    35     8     3    1
    36    27    22   ar
    37    33    29   ar
@<TRIPOS>MOLECULE
*****
 33 37 0 0 0
SMALL
GASTEIGER

@<TRIPOS>ATOM
      1 O          63.8775   88.5527   12.0786 O.2     1  UNL1       -0.2698
      2 C          63.7254   87.8925   13.4169 C.2     1  UNL1        0.2507
      3 N          63.5392   88.7281   14.6486 N.am    1  UNL1       -0.2723
      4 C          63.3870   88.0679   15.9868 C.3     1  UNL1        0.1257
      5 C          63.2008   88.9035   17.2186 C.3     1  UNL1        0.1637
      6 O          63.1667   90.3993   17.1120 O.3     1  UNL1       -0.3502
      7 C          63.3189   91.0595   15.7737 C.3     1  UNL1        0.1622
      8 C          63.5051   90.2239   14.5420 C.3     1  UNL1        0.1096
      9 C          63.7594   86.3966   13.5234 C.ar    1  UNL1        0.0738
     10 C          64.5572   85.7402   14.6110 C.ar    1  UNL1        0.0061
     11 C          64.5913   84.2444   14.7175 C.ar    1  UNL1        0.0011
     12 C          63.8277   83.4050   13.7366 C.ar    1  UNL1        0.0130
     13 C          63.0299   84.0614   12.6491 C.ar    1  UNL1        0.0771
     14 CL         62.2662   83.2220   11.6682 Cl      1  UNL1       -0.0806
     15 C          62.9958   85.5572   12.5425 C.ar    1  UNL1        0.1177
     16 N          62.1980   86.2136   11.4550 N.ar    1  UNL1       -0.1468
     17 N          60.9437   87.0145   11.6425 N.ar    1  UNL1       -0.1447
     18 C          60.4849   87.4803   10.2924 C.ar    1  UNL1        0.1446
     19 C          61.4558   86.9673    9.2706 C.ar    1  UNL1        0.1446
     20 N          62.5145   86.1844    9.9891 N.ar    1  UNL1       -0.1447
     21 C          63.6572   90.8841   13.2037 C.3     1  UNL1        0.0496
     22 C          64.9043   91.6541   12.8847 C.ar    1  UNL1       -0.0083
     23 C          64.8933   92.6791   11.7897 C.ar    1  UNL1        0.0175
     24 C          66.1405   93.4492   11.4706 C.ar    1  UNL1        0.1026
     25 C          67.3985   93.1941   12.2466 C.ar    1  UNL1        0.0218
     26 C          67.4095   92.1690   13.3416 C.ar    1  UNL1        0.0127
     27 C          66.1624   91.3990   13.6607 C.ar    1  UNL1        0.0538
     28 CL         66.1734   90.3740   14.7557 Cl      1  UNL1       -0.0826
     29 N          66.1295   94.4742   10.3756 N.ar    1  UNL1       -0.1478
     30 N          65.3496   95.7555   10.3751 N.ar    1  UNL1       -0.1447
     31 C          65.6345   96.4712    9.0880 C.ar    1  UNL1        0.1446
     32 C          66.5906   95.6321    8.2929 C.ar    1  UNL1        0.1446
     33 N          66.8964   94.3980    9.0887 N.ar    1  UNL1       -0.1447
@<TRIPOS>BOND
     1     1     2    2
     2     2     9    1
     3     9    10   ar
     4    10    11   ar
     5    11    12   ar
     6    12    13   ar
     7    13    14    1
     8    13    15   ar
     9    15    16    1
    10    16    17   ar
    11    17    18   ar
    12    18    19   ar
    13    19    20   ar
    14     2     3   am
    15     3     4    1
    16     4     5    1
    17     5     6    1
    18     6     7    1
    19     7     8    1
    20     8    21    1
    21    21    22    1
    22    22    23   ar
    23    23    24   ar
    24    24    29    1
    25    29    30   ar
    26    30    31   ar
    27    31    32   ar
    28    32    33   ar
    29    24    25   ar
    30    25    26   ar
    31    26    27   ar
    32    27    28    1
    33    15     9   ar
    34    20    16   ar
    35     8     3    1
    36    27    22   ar
    37    33    29   ar
