@<TRIPOS>MOLECULE
*****
 37 40 0 0 0
SMALL
GASTEIGER

@<TRIPOS>ATOM
      1 C          62.5965   86.8062   17.7563 C.3     1  UNL1        0.0553
      2 C          63.2503   87.7293   16.7712 C.ar    1  UNL1        0.0939
      3 N          63.2982   89.2258   16.8627 N.ar    1  UNL1       -0.1721
      4 N          64.0485   89.7394   15.6697 N.ar    1  UNL1       -0.2463
      5 C          64.4642   88.5603   14.8409 C.ar    1  UNL1        0.1112
      6 C          63.9710   87.3181   15.5216 C.ar    1  UNL1        0.0850
      7 N          64.1644   85.9115   15.0377 N.am    1  UNL1       -0.2765
      8 C          62.9972   84.9713   14.9791 C.2     1  UNL1        0.2754
      9 O          61.6364   85.4377   15.4044 O.2     1  UNL1       -0.2675
     10 H          65.0575   85.6054   14.7586 H       1  UNL1        0.1553
     11 C          63.1906   83.5648   14.4952 C.ar    1  UNL1        0.1872
     12 N          63.7619   82.4292   15.2915 N.ar    1  UNL1       -0.1361
     13 N          63.7711   81.2094   14.4185 N.ar    1  UNL1       -0.1391
     14 C          63.2055   81.5912   13.0827 C.ar    1  UNL1        0.1514
     15 S          62.8467   83.0468   13.1301 S.2     1  UNL1       -0.0395
     16 C          63.0296   80.6776   11.9061 C.ar    1  UNL1        0.1068
     17 C          63.2310   81.1998   10.5144 C.ar    1  UNL1        0.0213
     18 C          63.0550   80.2862    9.3378 C.ar    1  UNL1        0.0032
     19 C          62.6776   78.8504    9.5528 C.ar    1  UNL1        0.0207
     20 C          62.4762   78.3282   10.9445 C.ar    1  UNL1        0.0989
     21 N          62.6522   79.2418   12.1211 N.ar    1  UNL1       -0.2417
     22 C          64.3330   91.1792   15.3599 C.3     1  UNL1        0.1274
     23 C          63.9314   92.2490   16.3316 C.3     1  UNL1        0.0312
     24 C          65.0191   91.5492   14.0783 C.ar    1  UNL1        0.0038
     25 C          64.2694   91.4853   12.7807 C.ar    1  UNL1       -0.0025
     26 C          64.9555   91.8553   11.4992 C.ar    1  UNL1        0.0036
     27 C          66.3913   92.2893   11.5153 C.ar    1  UNL1        0.0714
     28 C          67.1409   92.3532   12.8129 C.ar    1  UNL1        0.0074
     29 C          66.4548   91.9832   14.0944 C.ar    1  UNL1        0.0692
     30 C          67.0773   92.6593   10.2337 C.3     1  UNL1        0.4186
     31 F          67.7634   93.0293    8.9521 F       1  UNL1       -0.1659
     32 F          68.2677   91.8392   10.6341 F       1  UNL1       -0.1659
     33 F          65.8870   93.4794    9.8332 F       1  UNL1       -0.1659
     34 C          67.2045   92.0472   15.3921 C.3     1  UNL1        0.4183
     35 F          67.9541   92.1112   16.6898 F       1  UNL1       -0.1659
     36 F          66.8451   93.4971   15.5282 F       1  UNL1       -0.1659
     37 F          67.5639   90.5973   15.2560 F       1  UNL1       -0.1659
@<TRIPOS>BOND
     1     1     2    1
     2     2     3   ar
     3     3     4   ar
     4     4    22    1
     5    22    23    1
     6    22    24    1
     7    24    25   ar
     8    25    26   ar
     9    26    27   ar
    10    27    30    1
    11    30    31    1
    12    30    32    1
    13    30    33    1
    14    27    28   ar
    15    28    29   ar
    16    29    34    1
    17    34    35    1
    18    34    36    1
    19    34    37    1
    20     4     5   ar
    21     5     6   ar
    22     6     7    1
    23     7     8   am
    24     8     9    2
    25     8    11    1
    26    11    12   ar
    27    12    13   ar
    28    13    14   ar
    29    14    16    1
    30    16    17   ar
    31    17    18   ar
    32    18    19   ar
    33    19    20   ar
    34    20    21   ar
    35    14    15   ar
    36     6     2   ar
    37    15    11   ar
    38    29    24   ar
    39    21    16   ar
    40     7    10    1
@<TRIPOS>MOLECULE
*****
 37 40 0 0 0
SMALL
GASTEIGER

@<TRIPOS>ATOM
      1 C          63.4608   87.9016   17.3603 C.3     1  UNL1        0.0553
      2 C          63.4576   87.2540   16.0073 C.ar    1  UNL1        0.0939
      3 N          62.9015   85.9001   15.6792 N.ar    1  UNL1       -0.1721
      4 N          63.1101   85.6559   14.2139 N.ar    1  UNL1       -0.2463
      5 C          63.7950   86.8590   13.6365 C.ar    1  UNL1        0.1112
      6 C          64.0098   87.8467   14.7449 C.ar    1  UNL1        0.0850
      7 N          64.6623   89.1910   14.6137 N.am    1  UNL1       -0.2765
      8 C          64.3033   90.0903   13.4683 C.2     1  UNL1        0.2754
      9 O          63.2918   89.6455   12.4539 O.2     1  UNL1       -0.2675
     10 H          65.3261   89.4830   15.2795 H       1  UNL1        0.1553
     11 C          64.9557   91.4346   13.3372 C.ar    1  UNL1        0.1872
     12 N          65.3245   92.3496   14.4671 N.ar    1  UNL1       -0.1361
     13 N          65.9506   93.5804   13.8815 N.ar    1  UNL1       -0.1391
     14 C          65.9688   93.4261   12.3895 C.ar    1  UNL1        0.1514
     15 S          65.3539   92.0999   12.0531 S.2     1  UNL1       -0.0395
     16 C          66.5073   94.4230   11.4065 C.ar    1  UNL1        0.1068
     17 C          66.0817   95.8591   11.4853 C.ar    1  UNL1        0.0213
     18 C          66.6203   96.8559   10.5022 C.ar    1  UNL1        0.0032
     19 C          67.5844   96.4166    9.4404 C.ar    1  UNL1        0.0207
     20 C          68.0100   94.9804    9.3617 C.ar    1  UNL1        0.0989
     21 N          67.4715   93.9836   10.3447 N.ar    1  UNL1       -0.2417
     22 C          62.7049   84.4249   13.4588 C.3     1  UNL1        0.1274
     23 C          62.4443   83.1447   14.1957 C.3     1  UNL1        0.0312
     24 C          62.5602   84.4741   11.9665 C.ar    1  UNL1        0.0038
     25 C          61.6377   85.4741   11.3350 C.ar    1  UNL1       -0.0025
     26 C          61.4931   85.5233    9.8428 C.ar    1  UNL1        0.0036
     27 C          62.2709   84.5724    8.9822 C.ar    1  UNL1        0.0714
     28 C          63.1934   83.5723    9.6137 C.ar    1  UNL1        0.0074
     29 C          63.3381   83.5232   11.1059 C.ar    1  UNL1        0.0692
     30 C          62.1263   84.6216    7.4899 C.3     1  UNL1        0.4186
     31 F          61.9816   84.6708    5.9978 F       1  UNL1       -0.1659
     32 F          63.4802   83.9941    7.3379 F       1  UNL1       -0.1659
     33 F          60.7724   85.2491    7.6419 F       1  UNL1       -0.1659
     34 C          64.2606   82.5231   11.7375 C.3     1  UNL1        0.4183
     35 F          65.1830   81.5230   12.3690 F       1  UNL1       -0.1659
     36 F          63.3122   81.4191   11.3746 F       1  UNL1       -0.1659
     37 F          65.2090   83.6271   12.1003 F       1  UNL1       -0.1659
@<TRIPOS>BOND
     1     1     2    1
     2     2     3   ar
     3     3     4   ar
     4     4    22    1
     5    22    23    1
     6    22    24    1
     7    24    25   ar
     8    25    26   ar
     9    26    27   ar
    10    27    30    1
    11    30    31    1
    12    30    32    1
    13    30    33    1
    14    27    28   ar
    15    28    29   ar
    16    29    34    1
    17    34    35    1
    18    34    36    1
    19    34    37    1
    20     4     5   ar
    21     5     6   ar
    22     6     7    1
    23     7     8   am
    24     8     9    2
    25     8    11    1
    26    11    12   ar
    27    12    13   ar
    28    13    14   ar
    29    14    16    1
    30    16    17   ar
    31    17    18   ar
    32    18    19   ar
    33    19    20   ar
    34    20    21   ar
    35    14    15   ar
    36     6     2   ar
    37    15    11   ar
    38    29    24   ar
    39    21    16   ar
    40     7    10    1
@<TRIPOS>MOLECULE
*****
 37 40 0 0 0
SMALL
GASTEIGER

@<TRIPOS>ATOM
      1 C          63.3576   90.7438   12.8969 C.3     1  UNL1        0.0553
      2 C          63.4361   89.2463   12.9306 C.ar    1  UNL1        0.0939
      3 N          64.1648   88.4243   13.9521 N.ar    1  UNL1       -0.1721
      4 N          63.9788   86.9778   13.6016 N.ar    1  UNL1       -0.2463
      5 C          63.1353   86.9057   12.3634 C.ar    1  UNL1        0.1112
      6 C          62.7998   88.3077   11.9487 C.ar    1  UNL1        0.0850
      7 N          61.9733   88.7018   10.7606 N.am    1  UNL1       -0.2765
      8 C          61.0460   87.7066   10.1287 C.2     1  UNL1        0.2754
      9 O          60.9452   86.3171   10.6847 O.2     1  UNL1       -0.2675
     10 H          62.0394   89.6138   10.3957 H       1  UNL1        0.1553
     11 C          60.2194   88.1007    8.9407 C.ar    1  UNL1        0.1872
     12 N          59.0375   87.3511    8.4010 N.ar    1  UNL1       -0.1361
     13 N          58.5172   88.1007    7.2105 N.ar    1  UNL1       -0.1391
     14 C          59.3776   89.3137    7.0144 C.ar    1  UNL1        0.1514
     15 S          60.4296   89.3137    8.0836 S.2     1  UNL1       -0.0395
     16 C          59.2146   90.3456    5.9379 C.ar    1  UNL1        0.1068
     17 C          57.8452   90.8324    5.5669 C.ar    1  UNL1        0.0213
     18 C          57.6823   91.8643    4.4904 C.ar    1  UNL1        0.0032
     19 C          58.8886   92.4093    3.7850 C.ar    1  UNL1        0.0207
     20 C          60.2580   91.9224    4.1561 C.ar    1  UNL1        0.0989
     21 N          60.4211   90.8906    5.2325 N.ar    1  UNL1       -0.2417
     22 C          64.5382   85.8086   14.3566 C.3     1  UNL1        0.1274
     23 C          65.7056   86.0004   15.2788 C.3     1  UNL1        0.0312
     24 C          63.9302   84.4475   14.1895 C.ar    1  UNL1        0.0038
     25 C          64.4510   83.5179   13.1339 C.ar    1  UNL1       -0.0025
     26 C          63.8429   82.1569   12.9668 C.ar    1  UNL1        0.0036
     27 C          62.7140   81.7256   13.8554 C.ar    1  UNL1        0.0714
     28 C          62.1932   82.6552   14.9111 C.ar    1  UNL1        0.0074
     29 C          62.8013   84.0162   15.0782 C.ar    1  UNL1        0.0692
     30 C          62.1060   80.3645   13.6883 C.3     1  UNL1        0.4186
     31 F          61.4979   79.0035   13.5213 F       1  UNL1       -0.1659
     32 F          63.2064   79.9892   12.7406 F       1  UNL1       -0.1659
     33 F          61.0056   80.7398   14.6361 F       1  UNL1       -0.1659
     34 C          62.2805   84.9459   16.1339 C.3     1  UNL1        0.4183
     35 F          61.7597   85.8756   17.1895 F       1  UNL1       -0.1659
     36 F          60.9794   85.0554   15.3955 F       1  UNL1       -0.1659
     37 F          63.5816   84.8365   16.8722 F       1  UNL1       -0.1659
@<TRIPOS>BOND
     1     1     2    1
     2     2     3   ar
     3     3     4   ar
     4     4    22    1
     5    22    23    1
     6    22    24    1
     7    24    25   ar
     8    25    26   ar
     9    26    27   ar
    10    27    30    1
    11    30    31    1
    12    30    32    1
    13    30    33    1
    14    27    28   ar
    15    28    29   ar
    16    29    34    1
    17    34    35    1
    18    34    36    1
    19    34    37    1
    20     4     5   ar
    21     5     6   ar
    22     6     7    1
    23     7     8   am
    24     8     9    2
    25     8    11    1
    26    11    12   ar
    27    12    13   ar
    28    13    14   ar
    29    14    16    1
    30    16    17   ar
    31    17    18   ar
    32    18    19   ar
    33    19    20   ar
    34    20    21   ar
    35    14    15   ar
    36     6     2   ar
    37    15    11   ar
    38    29    24   ar
    39    21    16   ar
    40     7    10    1
@<TRIPOS>MOLECULE
*****
 37 40 0 0 0
SMALL
GASTEIGER

@<TRIPOS>ATOM
      1 C          59.7576   88.9792   11.3050 C.3     1  UNL1        0.0553
      2 C          61.2091   89.3432   11.4085 C.ar    1  UNL1        0.0939
      3 N          61.7818   90.7249   11.2952 N.ar    1  UNL1       -0.1721
      4 N          63.2694   90.6250   11.4600 N.ar    1  UNL1       -0.2463
      5 C          63.6160   89.1815   11.6752 C.ar    1  UNL1        0.1112
      6 C          62.3426   88.3893   11.6433 C.ar    1  UNL1        0.0850
      7 N          62.2238   86.9040   11.8161 N.am    1  UNL1       -0.2765
      8 C          63.0104   86.2082   12.8869 C.2     1  UNL1        0.2754
      9 O          63.9160   86.9976   13.7851 O.2     1  UNL1       -0.2675
     10 H          61.6294   86.3859   11.2265 H       1  UNL1        0.1553
     11 C          62.8916   84.7229   13.0596 C.ar    1  UNL1        0.1872
     12 N          62.7006   83.9989   14.3594 N.ar    1  UNL1       -0.1361
     13 N          62.6338   82.5294   14.0660 N.ar    1  UNL1       -0.1391
     14 C          62.7834   82.3452   12.5849 C.ar    1  UNL1        0.1514
     15 S          62.9427   83.7009   11.9629 S.2     1  UNL1       -0.0395
     16 C          62.7752   81.0353   11.8541 C.ar    1  UNL1        0.1068
     17 C          63.0209   81.0003   10.3747 C.ar    1  UNL1        0.0213
     18 C          63.0127   79.6904    9.6439 C.ar    1  UNL1        0.0032
     19 C          62.7588   78.4155   10.3924 C.ar    1  UNL1        0.0207
     20 C          62.5132   78.4505   11.8717 C.ar    1  UNL1        0.0989
     21 N          62.5214   79.7604   12.6026 N.ar    1  UNL1       -0.2417
     22 C          64.2400   91.7679   11.4172 C.3     1  UNL1        0.1274
     23 C          64.1723   92.7679   10.3013 C.3     1  UNL1        0.0312
     24 C          65.2783   91.9107   12.4904 C.ar    1  UNL1        0.0038
     25 C          65.0082   91.3867   13.8697 C.ar    1  UNL1       -0.0025
     26 C          66.0465   91.5296   14.9428 C.ar    1  UNL1        0.0036
     27 C          67.3548   92.1963   14.6365 C.ar    1  UNL1        0.0714
     28 C          67.6248   92.7202   13.2572 C.ar    1  UNL1        0.0074
     29 C          66.5866   92.5774   12.1842 C.ar    1  UNL1        0.0692
     30 C          68.3931   92.3391   15.7097 C.3     1  UNL1        0.4186
     31 F          69.4314   92.4819   16.7828 F       1  UNL1       -0.1659
     32 F          67.3167   92.3176   16.7541 F       1  UNL1       -0.1659
     33 F          69.4695   92.3606   14.6653 F       1  UNL1       -0.1659
     34 C          66.8566   93.1014   10.8048 C.3     1  UNL1        0.4183
     35 F          67.1265   93.6253    9.4255 F       1  UNL1       -0.1659
     36 F          66.4058   94.4658   11.2349 F       1  UNL1       -0.1659
     37 F          67.3073   91.7369   10.3747 F       1  UNL1       -0.1659
@<TRIPOS>BOND
     1     1     2    1
     2     2     3   ar
     3     3     4   ar
     4     4    22    1
     5    22    23    1
     6    22    24    1
     7    24    25   ar
     8    25    26   ar
     9    26    27   ar
    10    27    30    1
    11    30    31    1
    12    30    32    1
    13    30    33    1
    14    27    28   ar
    15    28    29   ar
    16    29    34    1
    17    34    35    1
    18    34    36    1
    19    34    37    1
    20     4     5   ar
    21     5     6   ar
    22     6     7    1
    23     7     8   am
    24     8     9    2
    25     8    11    1
    26    11    12   ar
    27    12    13   ar
    28    13    14   ar
    29    14    16    1
    30    16    17   ar
    31    17    18   ar
    32    18    19   ar
    33    19    20   ar
    34    20    21   ar
    35    14    15   ar
    36     6     2   ar
    37    15    11   ar
    38    29    24   ar
    39    21    16   ar
    40     7    10    1
@<TRIPOS>MOLECULE
*****
 37 40 0 0 0
SMALL
GASTEIGER

@<TRIPOS>ATOM
      1 C          60.7263   88.2965   10.8826 C.3     1  UNL1        0.0553
      2 C          61.9071   88.7015   11.7142 C.ar    1  UNL1        0.0939
      3 N          62.3337   90.1081   12.0137 N.ar    1  UNL1       -0.1721
      4 N          63.5589   90.0471   12.8769 N.ar    1  UNL1       -0.2463
      5 C          63.8895   88.6028   13.1109 C.ar    1  UNL1        0.1112
      6 C          62.8687   87.7712   12.3923 C.ar    1  UNL1        0.0850
      7 N          62.8183   86.2724   12.3579 N.am    1  UNL1       -0.2765
      8 C          63.1710   85.4819   13.5828 C.2     1  UNL1        0.2754
      9 O          63.5742   86.1900   14.8421 O.2     1  UNL1       -0.2675
     10 H          62.5537   85.8077   11.5313 H       1  UNL1        0.1553
     11 C          63.1207   83.9831   13.5484 C.ar    1  UNL1        0.1872
     12 N          63.1764   83.0715   14.7383 N.ar    1  UNL1       -0.1361
     13 N          63.0959   81.6578   14.2434 N.ar    1  UNL1       -0.1391
     14 C          62.9904   81.6957   12.7476 C.ar    1  UNL1        0.1514
     15 S          63.0057   83.1328   12.3180 S.2     1  UNL1       -0.0395
     16 C          62.8876   80.5054   11.8405 C.ar    1  UNL1        0.1068
     17 C          63.0591   80.6738   10.3599 C.ar    1  UNL1        0.0213
     18 C          62.9563   79.4834    9.4529 C.ar    1  UNL1        0.0032
     19 C          62.6821   78.1248   10.0265 C.ar    1  UNL1        0.0207
     20 C          62.5106   77.9565   11.5071 C.ar    1  UNL1        0.0989
     21 N          62.6133   79.1468   12.4141 N.ar    1  UNL1       -0.2417
     22 C          64.3199   91.2237   13.4122 C.3     1  UNL1        0.1274
     23 C          64.3192   91.5104   14.8845 C.3     1  UNL1        0.0312
     24 C          65.0814   92.1136   12.4750 C.ar    1  UNL1        0.0038
     25 C          64.5647   92.3601   11.0886 C.ar    1  UNL1       -0.0025
     26 C          65.3262   93.2499   10.1516 C.ar    1  UNL1        0.0036
     27 C          66.6046   93.8933   10.6009 C.ar    1  UNL1        0.0714
     28 C          67.1213   93.6468   11.9873 C.ar    1  UNL1        0.0074
     29 C          66.3598   92.7570   12.9244 C.ar    1  UNL1        0.0692
     30 C          67.3661   94.7832    9.6638 C.3     1  UNL1        0.4186
     31 F          68.1277   95.6731    8.7267 F       1  UNL1       -0.1659
     32 F          67.6774   93.6013    8.7943 F       1  UNL1       -0.1659
     33 F          67.0549   95.9651   10.5333 F       1  UNL1       -0.1659
     34 C          66.8765   92.5105   14.3109 C.3     1  UNL1        0.4183
     35 F          67.3932   92.2640   15.6973 F       1  UNL1       -0.1659
     36 F          66.3443   93.8436   14.7462 F       1  UNL1       -0.1659
     37 F          67.4087   91.1774   13.8756 F       1  UNL1       -0.1659
@<TRIPOS>BOND
     1     1     2    1
     2     2     3   ar
     3     3     4   ar
     4     4    22    1
     5    22    23    1
     6    22    24    1
     7    24    25   ar
     8    25    26   ar
     9    26    27   ar
    10    27    30    1
    11    30    31    1
    12    30    32    1
    13    30    33    1
    14    27    28   ar
    15    28    29   ar
    16    29    34    1
    17    34    35    1
    18    34    36    1
    19    34    37    1
    20     4     5   ar
    21     5     6   ar
    22     6     7    1
    23     7     8   am
    24     8     9    2
    25     8    11    1
    26    11    12   ar
    27    12    13   ar
    28    13    14   ar
    29    14    16    1
    30    16    17   ar
    31    17    18   ar
    32    18    19   ar
    33    19    20   ar
    34    20    21   ar
    35    14    15   ar
    36     6     2   ar
    37    15    11   ar
    38    29    24   ar
    39    21    16   ar
    40     7    10    1
@<TRIPOS>MOLECULE
*****
 37 40 0 0 0
SMALL
GASTEIGER

@<TRIPOS>ATOM
      1 C          59.4905   91.2058   11.3480 C.3     1  UNL1        0.0553
      2 C          60.3158   89.9775   11.1026 C.ar    1  UNL1        0.0939
      3 N          59.9259   88.8101   10.2451 N.ar    1  UNL1       -0.1721
      4 N          61.0450   87.8121   10.2842 N.ar    1  UNL1       -0.2463
      5 C          62.1265   88.3626   11.1658 C.ar    1  UNL1        0.1112
      6 C          61.6758   89.7009   11.6716 C.ar    1  UNL1        0.0850
      7 N          62.4494   90.6040   12.5859 N.am    1  UNL1       -0.2765
      8 C          63.3930   90.0199   13.5950 C.2     1  UNL1        0.2754
      9 O          63.5630   88.5326   13.6898 O.2     1  UNL1       -0.2675
     10 H          62.3378   91.5802   12.5237 H       1  UNL1        0.1553
     11 C          64.1665   90.9230   14.5093 C.ar    1  UNL1        0.1872
     12 N          63.6218   91.6387   15.7097 N.ar    1  UNL1       -0.1361
     13 N          64.7392   92.4270   16.3260 N.ar    1  UNL1       -0.1391
     14 C          65.9746   92.1985   15.5065 C.ar    1  UNL1        0.1514
     15 S          65.6207   91.2690   14.3837 S.2     1  UNL1       -0.0395
     16 C          67.3266   92.7948   15.7645 C.ar    1  UNL1        0.1068
     17 C          68.4414   91.9321   16.2773 C.ar    1  UNL1        0.0213
     18 C          69.7933   92.5285   16.5353 C.ar    1  UNL1        0.0032
     19 C          70.0305   93.9876   16.2805 C.ar    1  UNL1        0.0207
     20 C          68.9158   94.8503   15.7677 C.ar    1  UNL1        0.0989
     21 N          67.5638   94.2539   15.5097 N.ar    1  UNL1       -0.2417
     22 C          61.0769   86.4948    9.5674 C.3     1  UNL1        0.1274
     23 C          60.2888   86.3086    8.3049 C.3     1  UNL1        0.0312
     24 C          61.8971   85.3636   10.1133 C.ar    1  UNL1        0.0038
     25 C          61.8057   85.0041   11.5667 C.ar    1  UNL1       -0.0025
     26 C          62.6259   83.8731   12.1125 C.ar    1  UNL1        0.0036
     27 C          63.5375   83.1015   11.2049 C.ar    1  UNL1        0.0714
     28 C          63.6289   83.4610    9.7515 C.ar    1  UNL1        0.0074
     29 C          62.8087   84.5921    9.2057 C.ar    1  UNL1        0.0692
     30 C          64.3577   81.9704   11.7507 C.3     1  UNL1        0.4186
     31 F          65.1778   80.8393   12.2965 F       1  UNL1       -0.1659
     32 F          64.7514   82.8209   12.9218 F       1  UNL1       -0.1659
     33 F          63.9640   81.1198   10.5797 F       1  UNL1       -0.1659
     34 C          62.9001   84.9516    7.7522 C.3     1  UNL1        0.4183
     35 F          62.9914   85.3111    6.2989 F       1  UNL1       -0.1659
     36 F          61.9242   83.8617    7.4213 F       1  UNL1       -0.1659
     37 F          63.8760   86.0416    8.0832 F       1  UNL1       -0.1659
@<TRIPOS>BOND
     1     1     2    1
     2     2     3   ar
     3     3     4   ar
     4     4    22    1
     5    22    23    1
     6    22    24    1
     7    24    25   ar
     8    25    26   ar
     9    26    27   ar
    10    27    30    1
    11    30    31    1
    12    30    32    1
    13    30    33    1
    14    27    28   ar
    15    28    29   ar
    16    29    34    1
    17    34    35    1
    18    34    36    1
    19    34    37    1
    20     4     5   ar
    21     5     6   ar
    22     6     7    1
    23     7     8   am
    24     8     9    2
    25     8    11    1
    26    11    12   ar
    27    12    13   ar
    28    13    14   ar
    29    14    16    1
    30    16    17   ar
    31    17    18   ar
    32    18    19   ar
    33    19    20   ar
    34    20    21   ar
    35    14    15   ar
    36     6     2   ar
    37    15    11   ar
    38    29    24   ar
    39    21    16   ar
    40     7    10    1
@<TRIPOS>MOLECULE
*****
 37 40 0 0 0
SMALL
GASTEIGER

@<TRIPOS>ATOM
      1 C          62.5970   87.4136   17.1298 C.3     1  UNL1        0.0553
      2 C          63.3549   88.3444   16.2302 C.ar    1  UNL1        0.0939
      3 N          63.7430   89.7577   16.5493 N.ar    1  UNL1       -0.1721
      4 N          64.4856   90.3121   15.3698 N.ar    1  UNL1       -0.2463
      5 C          64.5565   89.2413   14.3217 C.ar    1  UNL1        0.1112
      6 C          63.8576   88.0252   14.8534 C.ar    1  UNL1        0.0850
      7 N          63.6908   86.7193   14.1346 N.am    1  UNL1       -0.2765
      8 C          63.2056   86.7010   12.7155 C.2     1  UNL1        0.2754
      9 O          62.8872   87.9886   12.0150 O.2     1  UNL1       -0.2675
     10 H          63.8999   85.8742   14.5943 H       1  UNL1        0.1553
     11 C          63.0389   85.3951   11.9966 C.ar    1  UNL1        0.1872
     12 N          62.8756   85.2182   10.5161 N.ar    1  UNL1       -0.1361
     13 N          62.7419   83.7505   10.2365 N.ar    1  UNL1       -0.1391
     14 C          62.8225   83.0204   11.5443 C.ar    1  UNL1        0.1514
     15 S          63.0061   84.0367   12.6321 S.2     1  UNL1       -0.0395
     16 C          62.7350   81.5347   11.7314 C.ar    1  UNL1        0.1068
     17 C          62.9188   80.6188   10.5579 C.ar    1  UNL1        0.0213
     18 C          62.8313   79.1331   10.7451 C.ar    1  UNL1        0.0032
     19 C          62.5600   78.5632   12.1059 C.ar    1  UNL1        0.0207
     20 C          62.3762   79.4791   13.2795 C.ar    1  UNL1        0.0989
     21 N          62.4637   80.9648   13.0923 N.ar    1  UNL1       -0.2417
     22 C          65.0571   91.6945   15.2581 C.3     1  UNL1        0.1274
     23 C          65.0448   92.6094   16.4466 C.3     1  UNL1        0.0312
     24 C          65.6408   92.1618   13.9577 C.ar    1  UNL1        0.0038
     25 C          64.7690   92.2771   12.7426 C.ar    1  UNL1       -0.0025
     26 C          65.3528   92.7445   11.4423 C.ar    1  UNL1        0.0036
     27 C          66.8084   93.0965   11.3572 C.ar    1  UNL1        0.0714
     28 C          67.6802   92.9812   12.5723 C.ar    1  UNL1        0.0074
     29 C          67.0965   92.5139   13.8725 C.ar    1  UNL1        0.0692
     30 C          67.3922   93.5639   10.0568 C.3     1  UNL1        0.4186
     31 F          67.9759   94.0312    8.7565 F       1  UNL1       -0.1659
     32 F          66.8785   94.9477   10.3235 F       1  UNL1       -0.1659
     33 F          67.9059   92.1801    9.7901 F       1  UNL1       -0.1659
     34 C          67.9683   92.3985   15.0877 C.3     1  UNL1        0.4183
     35 F          68.8401   92.2831   16.3029 F       1  UNL1       -0.1659
     36 F          67.9681   90.9053   14.9461 F       1  UNL1       -0.1659
     37 F          67.9685   93.8918   15.2294 F       1  UNL1       -0.1659
@<TRIPOS>BOND
     1     1     2    1
     2     2     3   ar
     3     3     4   ar
     4     4    22    1
     5    22    23    1
     6    22    24    1
     7    24    25   ar
     8    25    26   ar
     9    26    27   ar
    10    27    30    1
    11    30    31    1
    12    30    32    1
    13    30    33    1
    14    27    28   ar
    15    28    29   ar
    16    29    34    1
    17    34    35    1
    18    34    36    1
    19    34    37    1
    20     4     5   ar
    21     5     6   ar
    22     6     7    1
    23     7     8   am
    24     8     9    2
    25     8    11    1
    26    11    12   ar
    27    12    13   ar
    28    13    14   ar
    29    14    16    1
    30    16    17   ar
    31    17    18   ar
    32    18    19   ar
    33    19    20   ar
    34    20    21   ar
    35    14    15   ar
    36     6     2   ar
    37    15    11   ar
    38    29    24   ar
    39    21    16   ar
    40     7    10    1
@<TRIPOS>MOLECULE
*****
 37 40 0 0 0
SMALL
GASTEIGER

@<TRIPOS>ATOM
      1 C          62.4125   92.9873    1.5388 C.3     1  UNL1        0.0553
      2 C          61.1621   93.4242    0.8348 C.ar    1  UNL1        0.0939
      3 N          61.0866   94.3907   -0.3098 N.ar    1  UNL1       -0.1721
      4 N          59.6456   94.5352   -0.7003 N.ar    1  UNL1       -0.2463
      5 C          58.8305   93.6579    0.2030 C.ar    1  UNL1        0.1112
      6 C          59.7677   92.9713    1.1517 C.ar    1  UNL1        0.0850
      7 N          59.3788   92.0019    2.2284 N.am    1  UNL1       -0.2765
      8 C          59.3643   92.4403    3.6627 C.2     1  UNL1        0.2754
      9 O          59.7386   93.8481    4.0205 O.2     1  UNL1       -0.2675
     10 H          59.1331   91.0780    1.9935 H       1  UNL1        0.1553
     11 C          58.9754   91.4710    4.7393 C.ar    1  UNL1        0.1872
     12 N          57.5772   91.1693    5.1911 N.ar    1  UNL1       -0.1361
     13 N          57.6540   90.1450    6.2842 N.ar    1  UNL1       -0.1391
     14 C          59.0997   89.8136    6.5080 C.ar    1  UNL1        0.1514
     15 S          59.9163   90.6331    5.5532 S.2     1  UNL1       -0.0395
     16 C          59.6348   88.8346    7.5106 C.ar    1  UNL1        0.1068
     17 C          59.3608   87.3688    7.3476 C.ar    1  UNL1        0.0213
     18 C          59.8960   86.3899    8.3503 C.ar    1  UNL1        0.0032
     19 C          60.7051   86.8765    9.5158 C.ar    1  UNL1        0.0207
     20 C          60.9791   88.3423    9.6787 C.ar    1  UNL1        0.0989
     21 N          60.4440   89.3213    8.6761 N.ar    1  UNL1       -0.2417
     22 C          59.1131   95.4043   -1.8008 C.3     1  UNL1        0.1274
     23 C          60.0613   96.1231   -2.7141 C.3     1  UNL1        0.0312
     24 C          57.6324   95.5546   -1.9880 C.ar    1  UNL1        0.0038
     25 C          56.9042   96.6876   -1.3277 C.ar    1  UNL1       -0.0025
     26 C          55.4235   96.8378   -1.5148 C.ar    1  UNL1        0.0036
     27 C          54.6711   95.8552   -2.3623 C.ar    1  UNL1        0.0714
     28 C          55.3994   94.7222   -3.0226 C.ar    1  UNL1        0.0074
     29 C          56.8800   94.5719   -2.8354 C.ar    1  UNL1        0.0692
     30 C          53.1904   96.0055   -2.5495 C.3     1  UNL1        0.4186
     31 F          51.7098   96.1558   -2.7367 F       1  UNL1       -0.1659
     32 F          53.0157   96.1331   -1.0652 F       1  UNL1       -0.1659
     33 F          53.3651   95.8778   -4.0337 F       1  UNL1       -0.1659
     34 C          57.6083   93.4389   -3.4958 C.3     1  UNL1        0.4183
     35 F          58.3366   92.3060   -4.1561 F       1  UNL1       -0.1659
     36 F          57.9345   94.3271   -4.6597 F       1  UNL1       -0.1659
     37 F          57.2822   92.5508   -2.3318 F       1  UNL1       -0.1659
@<TRIPOS>BOND
     1     1     2    1
     2     2     3   ar
     3     3     4   ar
     4     4    22    1
     5    22    23    1
     6    22    24    1
     7    24    25   ar
     8    25    26   ar
     9    26    27   ar
    10    27    30    1
    11    30    31    1
    12    30    32    1
    13    30    33    1
    14    27    28   ar
    15    28    29   ar
    16    29    34    1
    17    34    35    1
    18    34    36    1
    19    34    37    1
    20     4     5   ar
    21     5     6   ar
    22     6     7    1
    23     7     8   am
    24     8     9    2
    25     8    11    1
    26    11    12   ar
    27    12    13   ar
    28    13    14   ar
    29    14    16    1
    30    16    17   ar
    31    17    18   ar
    32    18    19   ar
    33    19    20   ar
    34    20    21   ar
    35    14    15   ar
    36     6     2   ar
    37    15    11   ar
    38    29    24   ar
    39    21    16   ar
    40     7    10    1
@<TRIPOS>MOLECULE
*****
 37 40 0 0 0
SMALL
GASTEIGER

@<TRIPOS>ATOM
      1 C          58.6542   89.5150   11.5084 C.3     1  UNL1        0.0553
      2 C          59.9944   88.8644   11.3334 C.ar    1  UNL1        0.0939
      3 N          60.6731   87.9638   12.3225 N.ar    1  UNL1       -0.1721
      4 N          61.9893   87.5429   11.7391 N.ar    1  UNL1       -0.2463
      5 C          62.1241   88.1833   10.3894 C.ar    1  UNL1        0.1112
      6 C          60.8911   89.0000   10.1387 C.ar    1  UNL1        0.0850
      7 N          60.6052   89.8101    8.9090 N.am    1  UNL1       -0.2765
      8 C          59.7468   89.2408    7.8187 C.2     1  UNL1        0.2754
      9 O          59.1743   87.8614    7.9579 O.2     1  UNL1       -0.2675
     10 H          60.9809   90.7155    8.8177 H       1  UNL1        0.1553
     11 C          59.4609   90.0510    6.5891 C.ar    1  UNL1        0.1872
     12 N          58.1024   90.3618    6.0342 N.ar    1  UNL1       -0.1361
     13 N          58.2850   91.1954    4.8007 N.ar    1  UNL1       -0.1391
     14 C          59.7565   91.3998    4.5932 C.ar    1  UNL1        0.1514
     15 S          60.4832   90.6925    5.6984 S.2     1  UNL1       -0.0395
     16 C          60.3900   92.1753    3.4764 C.ar    1  UNL1        0.1068
     17 C          61.8508   92.0062    3.1803 C.ar    1  UNL1        0.0213
     18 C          62.4842   92.7818    2.0635 C.ar    1  UNL1        0.0032
     19 C          61.6571   93.7265    1.2428 C.ar    1  UNL1        0.0207
     20 C          60.1964   93.8956    1.5390 C.ar    1  UNL1        0.0989
     21 N          59.5628   93.1200    2.6557 N.ar    1  UNL1       -0.2417
     22 C          62.9943   86.6401   12.3909 C.3     1  UNL1        0.1274
     23 C          64.0447   87.2153   13.2941 C.3     1  UNL1        0.0312
     24 C          62.9489   85.1619   12.1395 C.ar    1  UNL1        0.0038
     25 C          62.8630   84.6423   10.7351 C.ar    1  UNL1       -0.0025
     26 C          62.8176   83.1643   10.4837 C.ar    1  UNL1        0.0036
     27 C          62.8582   82.2058   11.6369 C.ar    1  UNL1        0.0714
     28 C          62.9441   82.7254   13.0413 C.ar    1  UNL1        0.0074
     29 C          62.9895   84.2035   13.2927 C.ar    1  UNL1        0.0692
     30 C          62.8128   80.7277   11.3855 C.3     1  UNL1        0.4186
     31 F          62.7674   79.2496   11.1341 F       1  UNL1       -0.1659
     32 F          63.2281   80.9569    9.9625 F       1  UNL1       -0.1659
     33 F          62.3974   80.4985   12.8084 F       1  UNL1       -0.1659
     34 C          63.0755   84.7231   14.6972 C.3     1  UNL1        0.4183
     35 F          63.1615   85.2428   16.1016 F       1  UNL1       -0.1659
     36 F          64.5729   84.6771   14.6225 F       1  UNL1       -0.1659
     37 F          61.5781   84.7691   14.7719 F       1  UNL1       -0.1659
@<TRIPOS>BOND
     1     1     2    1
     2     2     3   ar
     3     3     4   ar
     4     4    22    1
     5    22    23    1
     6    22    24    1
     7    24    25   ar
     8    25    26   ar
     9    26    27   ar
    10    27    30    1
    11    30    31    1
    12    30    32    1
    13    30    33    1
    14    27    28   ar
    15    28    29   ar
    16    29    34    1
    17    34    35    1
    18    34    36    1
    19    34    37    1
    20     4     5   ar
    21     5     6   ar
    22     6     7    1
    23     7     8   am
    24     8     9    2
    25     8    11    1
    26    11    12   ar
    27    12    13   ar
    28    13    14   ar
    29    14    16    1
    30    16    17   ar
    31    17    18   ar
    32    18    19   ar
    33    19    20   ar
    34    20    21   ar
    35    14    15   ar
    36     6     2   ar
    37    15    11   ar
    38    29    24   ar
    39    21    16   ar
    40     7    10    1
