@<TRIPOS>MOLECULE
*****
 60 67 0 0 0
SMALL
GASTEIGER

@<TRIPOS>ATOM
      1 C          60.9457   89.1936    8.8702 C.3     1  UNL1        0.1541
      2 N          61.0649   89.8952    7.5497 N.am    1  UNL1       -0.2822
      3 C          59.8296   90.2924    6.7972 C.2     1  UNL1        0.3043
      4 O          58.4750   89.9880    7.3652 O.2     1  UNL1       -0.2526
      5 N          59.9488   90.9939    5.4767 N.am    1  UNL1       -0.2640
      6 C          58.7135   91.3911    4.7243 C.3     1  UNL1        0.0989
      7 C          58.8327   92.0926    3.4038 C.3     1  UNL1        0.0662
      8 C          60.1873   92.3970    2.8359 C.3     1  UNL1        0.1620
      9 C          61.4226   91.9999    3.5884 C.3     1  UNL1        0.0662
     10 C          61.3033   91.2983    4.9088 C.3     1  UNL1        0.0989
     11 O          58.9519   92.7942    2.0833 O.3     1  UNL1       -0.4373
     12 C          59.0712   93.4958    0.7629 C.2     1  UNL1        0.4065
     13 O          57.8358   93.8929    0.0104 O.2     1  UNL1       -0.2260
     14 N          60.4257   93.8001    0.1950 N.am    1  UNL1       -0.2352
     15 C          61.6610   93.4030    0.9474 C.ar    1  UNL1        0.1358
     16 N          63.0155   93.7074    0.3795 N.ar    1  UNL1       -0.2291
     17 C          64.2509   93.3102    1.1320 C.ar    1  UNL1        0.1003
     18 C          64.1316   92.6087    2.4524 C.ar    1  UNL1        0.0206
     19 C          62.7771   92.3043    3.0204 C.ar    1  UNL1        0.0034
     20 C          61.5418   92.7014    2.2679 C.ar    1  UNL1        0.0456
     21 H          61.9539   90.0950    7.1769 H       1  UNL1        0.1514
     22 H          60.5039   94.2606   -0.6717 H       1  UNL1        0.1596
     23 C          61.4653   89.8473   10.1163 C.2     1  UNL1        0.2410
     24 O          60.6901   90.9590   10.7592 O.2     1  UNL1       -0.2733
     25 N          62.7599   89.3892   10.7196 N.am    1  UNL1       -0.2970
     26 H          63.2687   88.6595   10.2977 H       1  UNL1        0.1499
     27 C          63.2795   90.0428   11.9657 C.3     1  UNL1        0.1488
     28 C          63.7702   89.2005   13.1057 C.2     1  UNL1        0.2436
     29 O          64.5116   89.8371   14.2438 O.2     1  UNL1       -0.2731
     30 N          63.5195   87.7216   13.1078 N.am    1  UNL1       -0.2747
     31 C          62.7782   87.0850   11.9698 C.3     1  UNL1        0.1149
     32 C          62.5275   85.6061   11.9718 C.3     1  UNL1        0.1123
     33 N          63.0182   84.7638   13.1118 N.pl3   1  UNL1       -0.3040
     34 C          63.7596   85.4004   14.2499 C.3     1  UNL1        0.1123
     35 C          64.0103   86.8793   14.2479 C.3     1  UNL1        0.1149
     36 C          62.7675   83.2849   13.1138 C.ar    1  UNL1        0.0511
     37 C          63.1613   82.4558   11.9275 C.ar    1  UNL1        0.0352
     38 C          62.9106   80.9769   11.9295 C.ar    1  UNL1        0.1002
     39 N          62.2662   80.3271   13.1179 N.ar    1  UNL1       -0.2422
     40 C          61.8724   81.1561   14.3044 C.ar    1  UNL1        0.1002
     41 C          62.1230   82.6350   14.3023 C.ar    1  UNL1        0.0352
     42 C          63.3084   91.5387   12.0718 C.3     1  UNL1        0.0291
     43 C          64.5885   92.2830   11.8323 C.3     1  UNL1        0.0049
     44 C          65.4894   92.6159   12.9845 C.3     1  UNL1        0.0172
     45 C          66.7695   93.3602   12.7450 C.3     1  UNL1        0.0686
     46 N          67.1487   93.7716   11.3531 N.3     1  UNL1       -0.2975
     47 C          66.2478   93.4387   10.2010 C.3     1  UNL1        0.0686
     48 C          64.9677   92.6944   10.4405 C.3     1  UNL1        0.0172
     49 H          68.0519   93.3412   11.1546 H       1  UNL1        0.1232
     50 C          60.3069   87.8385    8.9446 C.3     1  UNL1        0.0553
     51 C          63.8900   84.0760    8.8707 C.3     1  UNL1        0.0287
     52 C          62.7396   84.7873    8.2220 C.2     1  UNL1       -0.0163
     53 C          62.0984   85.9573    8.9077 C.2     1  UNL1       -0.0105
     54 C          60.9481   86.6686    8.2590 C.2     1  UNL1       -0.0208
     55 C          60.4389   86.2098    6.9246 C.2     1  UNL1       -0.0046
     56 C          61.0801   85.0399    6.2390 C.2     1  UNL1        0.0261
     57 C          60.7971   84.3654    4.9295 C.2     1  UNL1        0.1197
     58 N          61.7726   83.2373    4.7688 N.2     1  UNL1       -0.1508
     59 N          62.6584   83.2145    5.9790 N.2     1  UNL1       -0.1677
     60 C          62.2304   84.3286    6.8877 C.3     1  UNL1        0.1672
@<TRIPOS>BOND
     1    51    52    1
     2    52    53    2
     3    53    54    1
     4    54    50    1
     5     1    50    1
     6     1     2    1
     7     2     3   am
     8     3     4    2
     9     3     5   am
    10     5     6    1
    11     6     7    1
    12     7     8    1
    13     8     9    1
    14     9    10    1
    15     8    11    1
    16    11    12    1
    17    12    13    2
    18    12    14   am
    19    14    15    1
    20    15    16   ar
    21    16    17   ar
    22    17    18   ar
    23    18    19   ar
    24    19    20   ar
    25     1    23    1
    26    23    24    2
    27    23    25   am
    28    25    27    1
    29    27    42    1
    30    42    43    1
    31    43    44    1
    32    44    45    1
    33    45    46    1
    34    46    47    1
    35    47    48    1
    36    27    28    1
    37    28    29    2
    38    28    30   am
    39    30    31    1
    40    31    32    1
    41    32    33    1
    42    33    36    1
    43    36    37   ar
    44    37    38   ar
    45    38    39   ar
    46    39    40   ar
    47    40    41   ar
    48    33    34    1
    49    34    35    1
    50    54    55    2
    51    55    56    1
    52    56    57    2
    53    57    58    1
    54    58    59    2
    55    59    60    1
    56    60    52    1
    57    10     5    1
    58    20    15   ar
    59    48    43    1
    60    35    30    1
    61    60    56    1
    62    20     8    1
    63    41    36   ar
    64     2    21    1
    65    14    22    1
    66    25    26    1
    67    46    49    1
@<TRIPOS>MOLECULE
*****
 60 67 0 0 0
SMALL
GASTEIGER

@<TRIPOS>ATOM
      1 C          61.0977   89.5535    9.1221 C.3     1  UNL1        0.1541
      2 N          61.1852   90.1510    7.7489 N.am    1  UNL1       -0.2822
      3 C          59.9322   90.4689    6.9881 C.2     1  UNL1        0.3043
      4 O          58.5916   90.1895    7.6004 O.2     1  UNL1       -0.2526
      5 N          60.0196   91.0663    5.6150 N.am    1  UNL1       -0.2640
      6 C          58.7667   91.3843    4.8542 C.3     1  UNL1        0.0989
      7 C          58.8542   91.9817    3.4811 C.3     1  UNL1        0.0662
      8 C          60.1947   92.2611    2.8688 C.3     1  UNL1        0.1620
      9 C          61.4477   91.9432    3.6296 C.3     1  UNL1        0.0662
     10 C          61.3602   91.3458    5.0027 C.3     1  UNL1        0.0989
     11 O          58.9417   92.5791    2.1079 O.3     1  UNL1       -0.4373
     12 C          59.0292   93.1765    0.7348 C.2     1  UNL1        0.4065
     13 O          57.7762   93.4945   -0.0261 O.2     1  UNL1       -0.2260
     14 N          60.3697   93.4559    0.1225 N.am    1  UNL1       -0.2352
     15 C          61.6227   93.1380    0.8833 C.ar    1  UNL1        0.1358
     16 N          62.9633   93.4174    0.2710 N.ar    1  UNL1       -0.2291
     17 C          64.2163   93.0994    1.0319 C.ar    1  UNL1        0.1003
     18 C          64.1288   92.5021    2.4050 C.ar    1  UNL1        0.0206
     19 C          62.7882   92.2226    3.0173 C.ar    1  UNL1        0.0034
     20 C          61.5352   92.5406    2.2565 C.ar    1  UNL1        0.0456
     21 H          62.0650   90.3344    7.3470 H       1  UNL1        0.1514
     22 H          60.4272   93.8480   -0.7787 H       1  UNL1        0.1596
     23 C          61.7025   90.2712   10.2921 C.2     1  UNL1        0.2410
     24 O          60.8284   90.7426   11.4164 O.2     1  UNL1       -0.2733
     25 N          63.1814   90.5176   10.3380 N.am    1  UNL1       -0.2970
     26 H          63.7551   90.2083    9.6001 H       1  UNL1        0.1499
     27 C          63.7863   91.2353   11.5081 C.3     1  UNL1        0.1488
     28 C          63.4111   90.8406   12.9056 C.2     1  UNL1        0.2436
     29 O          63.0058   91.8898   13.8982 O.2     1  UNL1       -0.2731
     30 N          63.4411   89.3966   13.3108 N.am    1  UNL1       -0.2747
     31 C          63.8464   88.3475   12.3184 C.3     1  UNL1        0.1149
     32 C          63.8764   86.9035   12.7236 C.3     1  UNL1        0.1123
     33 N          63.5012   86.5088   14.1212 N.pl3   1  UNL1       -0.3040
     34 C          63.0959   87.5580   15.1137 C.3     1  UNL1        0.1123
     35 C          63.0659   89.0019   14.7085 C.3     1  UNL1        0.1149
     36 C          63.5313   85.0649   14.5264 C.ar    1  UNL1        0.0511
     37 C          64.8064   84.2822   14.4193 C.ar    1  UNL1        0.0352
     38 C          64.8365   82.8383   14.8245 C.ar    1  UNL1        0.1002
     39 N          63.5914   82.1770   15.3367 N.ar    1  UNL1       -0.2422
     40 C          62.3162   82.9596   15.4438 C.ar    1  UNL1        0.1002
     41 C          62.2861   84.4036   15.0386 C.ar    1  UNL1        0.0352
     42 C          64.7664   92.3478   11.2805 C.3     1  UNL1        0.0291
     43 C          65.9379   92.5154   12.2022 C.3     1  UNL1        0.0049
     44 C          65.8586   93.4801   13.3482 C.3     1  UNL1        0.0172
     45 C          67.0301   93.6478   14.2698 C.3     1  UNL1        0.0686
     46 N          68.2809   92.8508   14.0455 N.3     1  UNL1       -0.2975
     47 C          68.3602   91.8862   12.8995 C.3     1  UNL1        0.0686
     48 C          67.1887   91.7185   11.9779 C.3     1  UNL1        0.0172
     49 H          68.4430   92.3115   14.8960 H       1  UNL1        0.1232
     50 C          60.4053   88.2385    9.3251 C.3     1  UNL1        0.0553
     51 C          62.9768   84.6273    6.6146 C.3     1  UNL1        0.0287
     52 C          62.4778   85.1565    7.9265 C.2     1  UNL1       -0.0163
     53 C          61.6910   86.4329    7.9698 C.2     1  UNL1       -0.0105
     54 C          61.1921   86.9622    9.2817 C.2     1  UNL1       -0.0208
     55 C          61.4800   86.2150   10.5502 C.2     1  UNL1       -0.0046
     56 C          62.2668   84.9387   10.5068 C.2     1  UNL1        0.0261
     57 C          62.7027   83.9912   11.5848 C.2     1  UNL1        0.1197
     58 N          63.4711   82.8763   10.9392 N.2     1  UNL1       -0.1508
     59 N          63.5100   83.1348    9.4622 N.2     1  UNL1       -0.1677
     60 C          62.7657   84.4094    9.1949 C.3     1  UNL1        0.1672
@<TRIPOS>BOND
     1    51    52    1
     2    52    53    2
     3    53    54    1
     4    54    50    1
     5     1    50    1
     6     1     2    1
     7     2     3   am
     8     3     4    2
     9     3     5   am
    10     5     6    1
    11     6     7    1
    12     7     8    1
    13     8     9    1
    14     9    10    1
    15     8    11    1
    16    11    12    1
    17    12    13    2
    18    12    14   am
    19    14    15    1
    20    15    16   ar
    21    16    17   ar
    22    17    18   ar
    23    18    19   ar
    24    19    20   ar
    25     1    23    1
    26    23    24    2
    27    23    25   am
    28    25    27    1
    29    27    42    1
    30    42    43    1
    31    43    44    1
    32    44    45    1
    33    45    46    1
    34    46    47    1
    35    47    48    1
    36    27    28    1
    37    28    29    2
    38    28    30   am
    39    30    31    1
    40    31    32    1
    41    32    33    1
    42    33    36    1
    43    36    37   ar
    44    37    38   ar
    45    38    39   ar
    46    39    40   ar
    47    40    41   ar
    48    33    34    1
    49    34    35    1
    50    54    55    2
    51    55    56    1
    52    56    57    2
    53    57    58    1
    54    58    59    2
    55    59    60    1
    56    60    52    1
    57    10     5    1
    58    20    15   ar
    59    48    43    1
    60    35    30    1
    61    60    56    1
    62    20     8    1
    63    41    36   ar
    64     2    21    1
    65    14    22    1
    66    25    26    1
    67    46    49    1
@<TRIPOS>MOLECULE
*****
 60 67 0 0 0
SMALL
GASTEIGER

@<TRIPOS>ATOM
      1 C          61.9454   90.2797    9.5624 C.3     1  UNL1        0.1541
      2 N          62.2530   89.1356   10.4824 N.am    1  UNL1       -0.2822
      3 C          62.2968   87.7346    9.9483 C.2     1  UNL1        0.3043
      4 O          62.0329   87.4777    8.4942 O.2     1  UNL1       -0.2526
      5 N          62.6044   86.5904   10.8684 N.am    1  UNL1       -0.2640
      6 C          62.6481   85.1895   10.3343 C.3     1  UNL1        0.0989
      7 C          62.9558   84.0454   11.2543 C.3     1  UNL1        0.0662
      8 C          63.2196   84.3024   12.7084 C.3     1  UNL1        0.1620
      9 C          63.1758   85.7033   13.2425 C.3     1  UNL1        0.0662
     10 C          62.8682   86.8474   12.3225 C.3     1  UNL1        0.0989
     11 O          63.2634   82.9013   12.1744 O.3     1  UNL1       -0.4373
     12 C          63.5710   81.7572   13.0944 C.2     1  UNL1        0.4065
     13 O          63.6148   80.3561   12.5603 O.2     1  UNL1       -0.2260
     14 N          63.8348   82.0142   14.5485 N.am    1  UNL1       -0.2352
     15 C          63.7911   83.4151   15.0825 C.ar    1  UNL1        0.1358
     16 N          64.0549   83.6721   16.5366 N.ar    1  UNL1       -0.2291
     17 C          64.0111   85.0732   17.0707 C.ar    1  UNL1        0.1003
     18 C          63.7035   86.2172   16.1506 C.ar    1  UNL1        0.0206
     19 C          63.4397   85.9603   14.6966 C.ar    1  UNL1        0.0034
     20 C          63.4834   84.5593   14.1625 C.ar    1  UNL1        0.0456
     21 H          62.4262   89.3042   11.4368 H       1  UNL1        0.1514
     22 H          64.0367   81.2633   15.1523 H       1  UNL1        0.1596
     23 C          60.7084   90.2486    8.7144 C.2     1  UNL1        0.2410
     24 O          59.3551   90.2753    9.3609 O.2     1  UNL1       -0.2733
     25 N          60.8248   90.1907    7.2201 N.am    1  UNL1       -0.2970
     26 H          61.7130   90.1732    6.7958 H       1  UNL1        0.1499
     27 C          59.5879   90.1595    6.3721 C.3     1  UNL1        0.1488
     28 C          59.2145   91.3546    5.5462 C.2     1  UNL1        0.2436
     29 O          57.9077   92.0519    5.7836 O.2     1  UNL1       -0.2731
     30 N          60.1478   91.8525    4.4827 N.am    1  UNL1       -0.2747
     31 C          61.4545   91.1554    4.2452 C.3     1  UNL1        0.1149
     32 C          62.3878   91.6533    3.1817 C.3     1  UNL1        0.1123
     33 N          62.0144   92.8484    2.3557 N.pl3   1  UNL1       -0.3040
     34 C          60.7076   93.5456    2.5932 C.3     1  UNL1        0.1123
     35 C          59.7743   93.0477    3.6567 C.3     1  UNL1        0.1149
     36 C          62.9477   93.3463    1.2922 C.ar    1  UNL1        0.0511
     37 C          62.4660   93.4902   -0.1210 C.ar    1  UNL1        0.0352
     38 C          63.3994   93.9881   -1.1845 C.ar    1  UNL1        0.1002
     39 N          64.8144   94.3422   -0.8347 N.ar    1  UNL1       -0.2422
     40 C          65.2961   94.1983    0.5786 C.ar    1  UNL1        0.1002
     41 C          64.3628   93.7004    1.6420 C.ar    1  UNL1        0.0352
     42 C          58.7243   88.9333    6.3502 C.3     1  UNL1        0.0291
     43 C          59.1574   87.6977    7.0822 C.3     1  UNL1        0.0049
     44 C          59.8827   86.6077    6.3501 C.3     1  UNL1        0.0172
     45 C          60.3158   85.3722    7.0822 C.3     1  UNL1        0.0686
     46 N          60.0236   85.2267    8.5463 N.3     1  UNL1       -0.2975
     47 C          59.2983   86.3166    9.2782 C.3     1  UNL1        0.0686
     48 C          58.8652   87.5522    8.5462 C.3     1  UNL1        0.0172
     49 H          60.9212   85.1040    9.0149 H       1  UNL1        0.1232
     50 C          62.8747   91.4549    9.4903 C.3     1  UNL1        0.0553
     51 C          66.8053   94.1750   11.5280 C.3     1  UNL1        0.0287
     52 C          65.7281   93.1412   11.6731 C.2     1  UNL1       -0.0163
     53 C          64.8399   92.8150   10.5091 C.2     1  UNL1       -0.0105
     54 C          63.7628   91.7812   10.6542 C.2     1  UNL1       -0.0208
     55 C          63.5737   91.0738   11.9634 C.2     1  UNL1       -0.0046
     56 C          64.4618   91.4000   13.1273 C.2     1  UNL1        0.0261
     57 C          64.5128   90.8713   14.5301 C.2     1  UNL1        0.1197
     58 N          65.6215   91.5782   15.2520 N.2     1  UNL1       -0.1508
     59 N          66.2557   92.5439   14.2953 N.2     1  UNL1       -0.1677
     60 C          65.5390   92.4338   12.9822 C.3     1  UNL1        0.1672
@<TRIPOS>BOND
     1    51    52    1
     2    52    53    2
     3    53    54    1
     4    54    50    1
     5     1    50    1
     6     1     2    1
     7     2     3   am
     8     3     4    2
     9     3     5   am
    10     5     6    1
    11     6     7    1
    12     7     8    1
    13     8     9    1
    14     9    10    1
    15     8    11    1
    16    11    12    1
    17    12    13    2
    18    12    14   am
    19    14    15    1
    20    15    16   ar
    21    16    17   ar
    22    17    18   ar
    23    18    19   ar
    24    19    20   ar
    25     1    23    1
    26    23    24    2
    27    23    25   am
    28    25    27    1
    29    27    42    1
    30    42    43    1
    31    43    44    1
    32    44    45    1
    33    45    46    1
    34    46    47    1
    35    47    48    1
    36    27    28    1
    37    28    29    2
    38    28    30   am
    39    30    31    1
    40    31    32    1
    41    32    33    1
    42    33    36    1
    43    36    37   ar
    44    37    38   ar
    45    38    39   ar
    46    39    40   ar
    47    40    41   ar
    48    33    34    1
    49    34    35    1
    50    54    55    2
    51    55    56    1
    52    56    57    2
    53    57    58    1
    54    58    59    2
    55    59    60    1
    56    60    52    1
    57    10     5    1
    58    20    15   ar
    59    48    43    1
    60    35    30    1
    61    60    56    1
    62    20     8    1
    63    41    36   ar
    64     2    21    1
    65    14    22    1
    66    25    26    1
    67    46    49    1
@<TRIPOS>MOLECULE
*****
 60 67 0 0 0
SMALL
GASTEIGER

@<TRIPOS>ATOM
      1 C          60.2700   88.1169    8.2314 C.3     1  UNL1        0.1541
      2 N          61.2344   88.9889    8.9795 N.am    1  UNL1       -0.2822
      3 C          61.3012   88.9211   10.4764 C.2     1  UNL1        0.3043
      4 O          60.4036   87.9812   11.2254 O.2     1  UNL1       -0.2526
      5 N          62.2656   89.7931   11.2245 N.am    1  UNL1       -0.2640
      6 C          62.3324   89.7253   12.7214 C.3     1  UNL1        0.0989
      7 C          63.2968   90.5973   13.4694 C.3     1  UNL1        0.0662
      8 C          64.1944   91.5372   12.7204 C.3     1  UNL1        0.1620
      9 C          64.1276   91.6050   11.2234 C.3     1  UNL1        0.0662
     10 C          63.1632   90.7330   10.4755 C.3     1  UNL1        0.0989
     11 O          64.2613   91.4693   14.2174 O.3     1  UNL1       -0.4373
     12 C          65.2256   92.3413   14.9654 C.2     1  UNL1        0.4065
     13 O          65.2925   92.2735   16.4624 O.2     1  UNL1       -0.2260
     14 N          66.1232   93.2812   14.2164 N.am    1  UNL1       -0.2352
     15 C          66.0564   93.3491   12.7194 C.ar    1  UNL1        0.1358
     16 N          66.9540   94.2890   11.9704 N.ar    1  UNL1       -0.2291
     17 C          66.8872   94.3568   10.4734 C.ar    1  UNL1        0.1003
     18 C          65.9228   93.4848    9.7255 C.ar    1  UNL1        0.0206
     19 C          65.0252   92.5449   10.4744 C.ar    1  UNL1        0.0034
     20 C          65.0920   92.4770   11.9714 C.ar    1  UNL1        0.0456
     21 H          61.8235   89.6058    8.4879 H       1  UNL1        0.1514
     22 H          66.7562   93.8536   14.7073 H       1  UNL1        0.1596
     23 C          60.5713   86.6604    8.0369 C.2     1  UNL1        0.2410
     24 O          59.4675   85.7060    7.6891 O.2     1  UNL1       -0.2733
     25 N          61.9764   86.1582    8.1901 N.am    1  UNL1       -0.2970
     26 H          62.7009   86.7846    8.4184 H       1  UNL1        0.1499
     27 C          62.2778   84.7018    7.9956 C.3     1  UNL1        0.1488
     28 C          63.1986   83.9932    8.9442 C.2     1  UNL1        0.2436
     29 O          64.1294   82.9329    8.4347 O.2     1  UNL1       -0.2731
     30 N          63.1887   84.3448   10.4024 N.am    1  UNL1       -0.2747
     31 C          62.2580   85.4050   10.9119 C.3     1  UNL1        0.1149
     32 C          62.2482   85.7567   12.3701 C.3     1  UNL1        0.1123
     33 N          63.1690   85.0481   13.3187 N.pl3   1  UNL1       -0.3040
     34 C          64.0998   83.9878   12.8092 C.3     1  UNL1        0.1123
     35 C          64.1096   83.6362   11.3510 C.3     1  UNL1        0.1149
     36 C          63.1591   85.3998   14.7769 C.ar    1  UNL1        0.0511
     37 C          62.4389   84.5204   15.7556 C.ar    1  UNL1        0.0352
     38 C          62.4290   84.8720   17.2138 C.ar    1  UNL1        0.1002
     39 N          63.1394   86.1031   17.6932 N.ar    1  UNL1       -0.2422
     40 C          63.8596   86.9825   16.7145 C.ar    1  UNL1        0.1002
     41 C          63.8695   86.6309   15.2563 C.ar    1  UNL1        0.0352
     42 C          61.6583   83.9538    6.8525 C.3     1  UNL1        0.0291
     43 C          61.9373   84.3766    5.4406 C.3     1  UNL1        0.0049
     44 C          61.0512   83.9027    4.3268 C.3     1  UNL1        0.0172
     45 C          61.3302   84.3255    2.9149 C.3     1  UNL1        0.0686
     46 N          62.4952   85.2222    2.6168 N.3     1  UNL1       -0.2975
     47 C          63.3812   85.6960    3.7305 C.3     1  UNL1        0.0686
     48 C          63.1022   85.2732    5.1424 C.3     1  UNL1        0.0172
     49 H          62.1176   86.0556    2.1661 H       1  UNL1        0.1232
     50 C          59.0043   88.7013    7.6780 C.3     1  UNL1        0.0553
     51 C          56.6162   92.0552    4.5080 C.3     1  UNL1        0.0287
     52 C          57.8721   91.3889    4.9863 C.2     1  UNL1       -0.0163
     53 C          57.8102   90.3783    6.0930 C.2     1  UNL1       -0.0105
     54 C          59.0661   89.7119    6.5713 C.2     1  UNL1       -0.0208
     55 C          60.3839   90.0563    5.9428 C.2     1  UNL1       -0.0046
     56 C          60.4457   91.0669    4.8361 C.2     1  UNL1        0.0261
     57 C          61.5914   91.6050    4.0311 C.2     1  UNL1        0.1197
     58 N          61.0435   92.6039    3.0554 N.2     1  UNL1       -0.1508
     59 N          59.5593   92.6831    3.2573 N.2     1  UNL1       -0.1677
     60 C          59.1898   91.7332    4.3579 C.3     1  UNL1        0.1672
@<TRIPOS>BOND
     1    51    52    1
     2    52    53    2
     3    53    54    1
     4    54    50    1
     5     1    50    1
     6     1     2    1
     7     2     3   am
     8     3     4    2
     9     3     5   am
    10     5     6    1
    11     6     7    1
    12     7     8    1
    13     8     9    1
    14     9    10    1
    15     8    11    1
    16    11    12    1
    17    12    13    2
    18    12    14   am
    19    14    15    1
    20    15    16   ar
    21    16    17   ar
    22    17    18   ar
    23    18    19   ar
    24    19    20   ar
    25     1    23    1
    26    23    24    2
    27    23    25   am
    28    25    27    1
    29    27    42    1
    30    42    43    1
    31    43    44    1
    32    44    45    1
    33    45    46    1
    34    46    47    1
    35    47    48    1
    36    27    28    1
    37    28    29    2
    38    28    30   am
    39    30    31    1
    40    31    32    1
    41    32    33    1
    42    33    36    1
    43    36    37   ar
    44    37    38   ar
    45    38    39   ar
    46    39    40   ar
    47    40    41   ar
    48    33    34    1
    49    34    35    1
    50    54    55    2
    51    55    56    1
    52    56    57    2
    53    57    58    1
    54    58    59    2
    55    59    60    1
    56    60    52    1
    57    10     5    1
    58    20    15   ar
    59    48    43    1
    60    35    30    1
    61    60    56    1
    62    20     8    1
    63    41    36   ar
    64     2    21    1
    65    14    22    1
    66    25    26    1
    67    46    49    1
