@<TRIPOS>MOLECULE
*****
 63 70 0 0 0
SMALL
GASTEIGER

@<TRIPOS>ATOM
      1 N          65.7603   89.9248   13.9732 N.3     1  UNL1       -0.1862
      2 C          66.1980   88.7509   14.7981 C.3     1  UNL1        0.1775
      3 C          65.4019   87.4798   14.7753 C.2     1  UNL1        0.2452
      4 O          65.8396   86.3059   15.6003 O.2     1  UNL1       -0.2732
      5 N          64.1683   87.3824   13.9276 N.am    1  UNL1       -0.2541
      6 C          63.7307   88.5563   13.1027 C.3     1  UNL1        0.1908
      7 C          62.4970   88.4590   12.2550 C.3     1  UNL1        0.1359
      8 N          61.7010   87.1879   12.2322 N.am    1  UNL1       -0.2705
      9 C          62.1386   86.0140   13.0572 C.2     1  UNL1        0.2445
     10 O          61.3426   84.7428   13.0344 O.2     1  UNL1       -0.2731
     11 C          63.3723   86.1113   13.9049 C.3     1  UNL1        0.1577
     12 N          64.5267   89.8274   13.1255 N.am    1  UNL1       -0.1863
     13 C          64.0890   91.0013   12.3005 C.2     1  UNL1        0.3191
     14 O          62.8554   90.9040   11.4528 O.2     1  UNL1       -0.2512
     15 N          64.8850   92.2725   12.3233 N.am    1  UNL1       -0.2836
     16 H          65.6947   92.3363   12.8797 H       1  UNL1        0.1513
     17 C          66.5564   91.1959   13.9959 C.3     1  UNL1        0.1188
     18 C          67.3900   93.0164   15.6515 C.2     1  UNL1       -0.0034
     19 C          67.3223   91.5792   15.2273 C.2     1  UNL1       -0.0071
     20 C          60.4673   87.0906   11.3845 C.3     1  UNL1        0.1217
     21 C          60.5767   87.1609    9.8901 C.ar    1  UNL1        0.0135
     22 C          61.0420   85.9639    9.1150 C.ar    1  UNL1       -0.0012
     23 C          61.1514   86.0342    7.6207 C.ar    1  UNL1       -0.0002
     24 C          60.7954   87.3014    6.9015 C.ar    1  UNL1        0.0016
     25 C          60.3301   88.4984    7.6766 C.ar    1  UNL1        0.0214
     26 C          59.9129   89.8732    7.2454 C.ar    1  UNL1        0.0722
     27 C          59.5457   90.6526    8.4733 C.ar    1  UNL1        0.0805
     28 N          59.7359   89.7595    9.6633 N.ar    1  UNL1       -0.3241
     29 C          59.4854   90.1322   11.0944 C.3     1  UNL1        0.1305
     30 C          60.2207   88.4281    9.1709 C.ar    1  UNL1        0.0577
     31 C          59.8704   90.3797    5.8341 C.2     1  UNL1        0.2510
     32 O          58.6992   90.0540    4.9553 O.2     1  UNL1       -0.2698
     33 N          60.9990   91.2119    5.3016 N.am    1  UNL1       -0.2791
     34 H          61.7677   91.4256    5.8784 H       1  UNL1        0.1552
     35 C          60.9566   91.7184    3.8904 C.ar    1  UNL1        0.0701
     36 C          62.1458   91.5404    2.9937 C.ar    1  UNL1        0.0191
     37 C          62.1035   92.0469    1.5824 C.ar    1  UNL1        0.0356
     38 C          60.8719   92.7314    1.0679 C.ar    1  UNL1        0.1319
     39 N          59.6827   92.9093    1.9646 N.ar    1  UNL1       -0.2279
     40 C          59.7250   92.4028    3.3758 C.ar    1  UNL1        0.1149
     41 N          60.8294   93.2379   -0.3434 N.pl3   1  UNL1       -0.2904
     42 C          59.6557   92.9167   -1.2205 C.3     1  UNL1        0.1095
     43 C          59.6132   93.4232   -2.6318 C.3     1  UNL1        0.0939
     44 N          60.7444   94.2509   -3.1659 N.3     1  UNL1       -0.2686
     45 C          60.7019   94.7574   -4.5772 C.3     1  UNL1        0.0897
     46 C          61.9181   94.5721   -2.2889 C.3     1  UNL1        0.0939
     47 C          61.9606   94.0656   -0.8775 C.3     1  UNL1        0.1095
     48 C          63.8099   84.9374   14.7298 C.3     1  UNL1        0.0556
     49 C          63.4782   83.5435   14.2860 C.ar    1  UNL1       -0.0198
     50 C          64.3053   82.8768   13.2271 C.ar    1  UNL1       -0.0011
     51 C          63.9737   81.4829   12.7833 C.ar    1  UNL1        0.0363
     52 C          62.8149   80.7557   13.3983 C.ar    1  UNL1        0.1337
     53 O          62.4832   79.3618   12.9545 O.3     1  UNL1       -0.5055
     54 C          61.9877   81.4224   14.4573 C.ar    1  UNL1        0.0363
     55 C          62.3194   82.8163   14.9011 C.ar    1  UNL1       -0.0011
     56 H          62.9999   78.9453   12.2931 H       1  UNL1        0.2922
     57 C          64.4474   93.4463   11.4984 C.3     1  UNL1        0.1177
     58 C          65.4389   94.1663   10.6332 C.ar    1  UNL1       -0.0025
     59 C          66.5407   93.4028    9.9601 C.ar    1  UNL1       -0.0026
     60 C          67.5322   94.1229    9.0949 C.ar    1  UNL1       -0.0003
     61 C          67.4219   95.6064    8.9028 C.ar    1  UNL1       -0.0000
     62 C          66.3200   96.3700    9.5759 C.ar    1  UNL1       -0.0003
     63 C          65.3285   95.6499   10.4411 C.ar    1  UNL1       -0.0026
@<TRIPOS>BOND
     1    18    19    2
     2    19    17    1
     3    17     1    1
     4     1     2    1
     5     2     3    1
     6     3     4    2
     7     3     5   am
     8     5     6    1
     9     6     7    1
    10     7     8    1
    11     8    20    1
    12    20    21    1
    13    21    22   ar
    14    22    23   ar
    15    23    24   ar
    16    24    25   ar
    17    25    26   ar
    18    26    31    1
    19    31    32    2
    20    31    33   am
    21    33    35    1
    22    35    36   ar
    23    36    37   ar
    24    37    38   ar
    25    38    41    1
    26    41    42    1
    27    42    43    1
    28    43    44    1
    29    44    45    1
    30    44    46    1
    31    46    47    1
    32    38    39   ar
    33    39    40   ar
    34    26    27   ar
    35    27    28   ar
    36    28    29    1
    37    28    30   ar
    38     8     9   am
    39     9    10    2
    40     9    11    1
    41    11    48    1
    42    48    49    1
    43    49    50   ar
    44    50    51   ar
    45    51    52   ar
    46    52    53    1
    47    52    54   ar
    48    54    55   ar
    49     6    12    1
    50    12    13   am
    51    13    14    2
    52    13    15   am
    53    15    57    1
    54    57    58    1
    55    58    59   ar
    56    59    60   ar
    57    60    61   ar
    58    61    62   ar
    59    62    63   ar
    60    12     1    1
    61    63    58   ar
    62    11     5    1
    63    55    49   ar
    64    30    21   ar
    65    30    25   ar
    66    40    35   ar
    67    47    41    1
    68    33    34    1
    69    53    56    1
    70    15    16    1
@<TRIPOS>MOLECULE
*****
 63 70 0 0 0
SMALL
GASTEIGER

@<TRIPOS>ATOM
      1 N          64.5731   83.2367   13.4691 N.3     1  UNL1       -0.1862
      2 C          65.2384   84.0829   14.5137 C.3     1  UNL1        0.1775
      3 C          64.8542   85.5247   14.6675 C.2     1  UNL1        0.2452
      4 O          65.5196   86.3708   15.7122 O.2     1  UNL1       -0.2732
      5 N          63.8047   86.1203   13.7766 N.am    1  UNL1       -0.2541
      6 C          63.1394   85.2742   12.7320 C.3     1  UNL1        0.1908
      7 C          62.0898   85.8698   11.8410 C.3     1  UNL1        0.1359
      8 N          61.7056   87.3116   11.9948 N.am    1  UNL1       -0.2705
      9 C          62.3710   88.1578   13.0395 C.2     1  UNL1        0.2445
     10 O          61.9869   89.5996   13.1933 O.2     1  UNL1       -0.2731
     11 C          63.4206   87.5621   13.9304 C.3     1  UNL1        0.1577
     12 N          63.5235   83.8324   12.5782 N.am    1  UNL1       -0.1863
     13 C          62.8581   82.9862   11.5335 C.2     1  UNL1        0.3191
     14 O          61.8086   83.5819   10.6426 O.2     1  UNL1       -0.2512
     15 N          63.2423   81.5444   11.3797 N.am    1  UNL1       -0.2836
     16 H          63.9312   81.1535   11.9644 H       1  UNL1        0.1513
     17 C          64.9572   81.7949   13.3153 C.3     1  UNL1        0.1188
     18 C          62.7682   81.0805   14.5184 C.2     1  UNL1       -0.0034
     19 C          64.0766   80.7198   13.8797 C.2     1  UNL1       -0.0071
     20 C          60.6561   87.9073   11.1039 C.3     1  UNL1        0.1217
     21 C          61.0311   88.9600   10.1033 C.ar    1  UNL1        0.0135
     22 C          62.0839   89.9739   10.4402 C.ar    1  UNL1       -0.0012
     23 C          62.4589   91.0266    9.4396 C.ar    1  UNL1       -0.0002
     24 C          61.7809   91.0654    8.1021 C.ar    1  UNL1        0.0016
     25 C          60.7281   90.0515    7.7652 C.ar    1  UNL1        0.0214
     26 C          59.8935   89.8414    6.5367 C.ar    1  UNL1        0.0722
     27 C          59.0029   88.6589    6.7780 C.ar    1  UNL1        0.0805
     28 N          59.2869   88.1381    8.1556 N.ar    1  UNL1       -0.3241
     29 C          58.6215   86.9630    8.8085 C.3     1  UNL1        0.1305
     30 C          60.3531   88.9988    8.7658 C.ar    1  UNL1        0.0577
     31 C          59.9414   90.6687    5.2862 C.2     1  UNL1        0.2510
     32 O          58.6669   91.1044    4.6261 O.2     1  UNL1       -0.2698
     33 N          61.2636   91.0602    4.6961 N.am    1  UNL1       -0.2791
     34 H          62.1001   90.7742    5.1294 H       1  UNL1        0.1552
     35 C          61.3115   91.8874    3.4457 C.ar    1  UNL1        0.0701
     36 C          62.5168   91.8306    2.5546 C.ar    1  UNL1        0.0191
     37 C          62.5648   92.6578    1.3043 C.ar    1  UNL1        0.0356
     38 C          61.4074   93.5418    0.9450 C.ar    1  UNL1        0.1319
     39 N          60.2021   93.5986    1.8361 N.ar    1  UNL1       -0.2279
     40 C          60.1542   92.7714    3.0865 C.ar    1  UNL1        0.1149
     41 N          61.4553   94.3690   -0.3053 N.pl3   1  UNL1       -0.2904
     42 C          61.5199   93.6990   -1.6459 C.3     1  UNL1        0.1095
     43 C          61.5678   94.5262   -2.8963 C.3     1  UNL1        0.0939
     44 N          61.5511   96.0234   -2.8062 N.3     1  UNL1       -0.2686
     45 C          61.5989   96.8506   -4.0565 C.3     1  UNL1        0.0897
     46 C          61.4865   96.6934   -1.4657 C.3     1  UNL1        0.0939
     47 C          61.4386   95.8662   -0.2152 C.3     1  UNL1        0.1095
     48 C          64.0859   88.4083   14.9750 C.3     1  UNL1        0.0556
     49 C          64.5498   89.7935   14.6345 C.ar    1  UNL1       -0.0198
     50 C          64.8677   90.1496   13.2125 C.ar    1  UNL1       -0.0011
     51 C          65.3315   91.5348   12.8720 C.ar    1  UNL1        0.0363
     52 C          65.4775   92.5640   13.9534 C.ar    1  UNL1        0.1337
     53 O          65.9413   93.9492   13.6129 O.3     1  UNL1       -0.5055
     54 C          65.1596   92.2079   15.3755 C.ar    1  UNL1        0.0363
     55 C          64.6957   90.8226   15.7160 C.ar    1  UNL1       -0.0011
     56 H          66.1399   94.1716   12.7246 H       1  UNL1        0.2922
     57 C          62.5770   80.6983   10.3351 C.3     1  UNL1        0.1177
     58 C          63.0001   79.2720   10.1439 C.ar    1  UNL1       -0.0025
     59 C          62.4918   78.2081   11.0711 C.ar    1  UNL1       -0.0026
     60 C          62.9150   76.7818   10.8800 C.ar    1  UNL1       -0.0003
     61 C          63.8465   76.4193    9.7616 C.ar    1  UNL1       -0.0000
     62 C          64.3549   77.4832    8.8343 C.ar    1  UNL1       -0.0003
     63 C          63.9317   78.9095    9.0255 C.ar    1  UNL1       -0.0026
@<TRIPOS>BOND
     1    18    19    2
     2    19    17    1
     3    17     1    1
     4     1     2    1
     5     2     3    1
     6     3     4    2
     7     3     5   am
     8     5     6    1
     9     6     7    1
    10     7     8    1
    11     8    20    1
    12    20    21    1
    13    21    22   ar
    14    22    23   ar
    15    23    24   ar
    16    24    25   ar
    17    25    26   ar
    18    26    31    1
    19    31    32    2
    20    31    33   am
    21    33    35    1
    22    35    36   ar
    23    36    37   ar
    24    37    38   ar
    25    38    41    1
    26    41    42    1
    27    42    43    1
    28    43    44    1
    29    44    45    1
    30    44    46    1
    31    46    47    1
    32    38    39   ar
    33    39    40   ar
    34    26    27   ar
    35    27    28   ar
    36    28    29    1
    37    28    30   ar
    38     8     9   am
    39     9    10    2
    40     9    11    1
    41    11    48    1
    42    48    49    1
    43    49    50   ar
    44    50    51   ar
    45    51    52   ar
    46    52    53    1
    47    52    54   ar
    48    54    55   ar
    49     6    12    1
    50    12    13   am
    51    13    14    2
    52    13    15   am
    53    15    57    1
    54    57    58    1
    55    58    59   ar
    56    59    60   ar
    57    60    61   ar
    58    61    62   ar
    59    62    63   ar
    60    12     1    1
    61    63    58   ar
    62    11     5    1
    63    55    49   ar
    64    30    21   ar
    65    30    25   ar
    66    40    35   ar
    67    47    41    1
    68    33    34    1
    69    53    56    1
    70    15    16    1
