@<TRIPOS>MOLECULE
*****
 41 46 0 0 0
SMALL
GASTEIGER

@<TRIPOS>ATOM
      1 C          65.8301   91.3685   14.1637 C.ar    1  UNL1        0.0870
      2 N          65.2823   90.2378   14.9831 N.ar    1  UNL1       -0.2279
      3 C          64.1109   89.4466   14.4813 C.ar    1  UNL1        0.1596
      4 N          63.5631   88.3160   15.3007 N.pl3   1  UNL1       -0.3402
      5 C          63.4873   89.7861   13.1598 C.ar    1  UNL1        0.1696
      6 C          64.0351   90.9168   12.3404 C.ar    1  UNL1        0.0428
      7 C          65.2065   91.7080   12.8424 C.ar    1  UNL1        0.0385
      8 H          63.9723   88.0932   16.1679 H       1  UNL1        0.1438
      9 H          62.7943   87.7967   14.9713 H       1  UNL1        0.1438
     10 C          65.7543   92.8386   12.0229 C.2     1  UNL1        0.0824
     11 C          66.6405   92.5522   10.8472 C.2     1  UNL1        0.0184
     12 C          67.1883   93.6828   10.0277 C.2     1  UNL1        0.0241
     13 C          68.0803   93.7084    8.8220 C.2     1  UNL1        0.0788
     14 C          68.6581   92.5112    8.1271 C.3     1  UNL1        0.0537
     15 N          68.2932   95.1414    8.4332 N.2     1  UNL1       -0.1567
     16 N          67.5328   96.0014    9.3986 N.2     1  UNL1       -0.1661
     17 C          66.8499   95.1000   10.3841 C.3     1  UNL1        0.1893
     18 C          65.9637   95.3865   11.5598 C.2     1  UNL1        0.1030
     19 N          65.4159   94.2558   12.3793 N.2     1  UNL1       -0.2460
     20 C          68.8277   91.3849   12.8741 C.3     1  UNL1        0.0725
     21 C          68.3793   92.1673   14.0728 C.ar    1  UNL1        0.1248
     22 O          69.2301   93.0945   14.8892 O.2     1  UNL1       -0.4546
     23 C          68.3779   93.6600   15.9865 C.ar    1  UNL1        0.1792
     24 C          67.0006   93.0823   15.8483 C.ar    1  UNL1        0.0448
     25 C          67.0014   92.1597   14.6656 C.ar    1  UNL1        0.0512
     26 O          62.3159   88.9949   12.6579 O.3     1  UNL1       -0.4712
     27 C          61.3561   89.6118   11.6842 C.3     1  UNL1        0.2211
     28 C          60.8354   88.8056   10.5315 C.3     1  UNL1        0.0995
     29 N          60.5301   89.4757    9.2247 N.3     1  UNL1       -0.3190
     30 H          60.1884   88.7827    8.5589 H       1  UNL1        0.1189
     31 H          61.3776   89.9097    8.8590 H       1  UNL1        0.1189
     32 C          60.6200   87.3290   10.6855 C.3     1  UNL1        0.0472
     33 C          61.5616   86.3615   10.0318 C.2     1  UNL1       -0.0005
     34 C          61.8350   86.2546    8.5608 C.2     1  UNL1        0.0942
     35 N          62.8374   85.1581    8.3543 N.2     1  UNL1       -0.2482
     36 C          63.1835   84.5872    9.6976 C.2     1  UNL1        0.0631
     37 C          64.1148   83.4863   10.1106 C.3     1  UNL1        0.0717
     38 C          64.2575   83.1292   11.5604 C.2     1  UNL1       -0.0198
     39 C          63.4689   83.8730   12.5972 C.2     1  UNL1       -0.0042
     40 C          62.5377   84.9739   12.1842 C.2     1  UNL1        0.0006
     41 C          62.3950   85.3310   10.7343 C.2     1  UNL1        0.0114
@<TRIPOS>BOND
     1    20    21    1
     2    21    22   ar
     3    22    23   ar
     4    23    24   ar
     5    24    25   ar
     6    25     1    1
     7     1     2   ar
     8     2     3   ar
     9     3     4    1
    10     3     5   ar
    11     5    26    1
    12    26    27    1
    13    27    28    1
    14    28    29    1
    15    28    32    1
    16    32    33    1
    17    33    34    2
    18    34    35    1
    19    35    36    2
    20    36    37    1
    21    37    38    1
    22    38    39    2
    23    39    40    1
    24    40    41    2
    25     5     6   ar
    26     6     7   ar
    27     7    10    1
    28    10    11    2
    29    11    12    1
    30    12    13    2
    31    13    14    1
    32    13    15    1
    33    15    16    2
    34    16    17    1
    35    17    18    1
    36    18    19    2
    37    25    21   ar
    38     7     1   ar
    39    19    10    1
    40    41    33    1
    41    17    12    1
    42    41    36    1
    43     4     8    1
    44     4     9    1
    45    29    30    1
    46    29    31    1
@<TRIPOS>MOLECULE
*****
 41 46 0 0 0
SMALL
GASTEIGER

@<TRIPOS>ATOM
      1 C          65.8177   91.3850   14.1535 C.ar    1  UNL1        0.0870
      2 N          65.2631   90.2549   14.9691 N.ar    1  UNL1       -0.2279
      3 C          64.0876   89.4719   14.4642 C.ar    1  UNL1        0.1596
      4 N          63.5330   88.3418   15.2799 N.pl3   1  UNL1       -0.3402
      5 C          63.4666   89.8189   13.1436 C.ar    1  UNL1        0.1696
      6 C          64.0212   90.9490   12.3279 C.ar    1  UNL1        0.0428
      7 C          65.1968   91.7320   12.8329 C.ar    1  UNL1        0.0385
      8 H          63.9405   88.1140   16.1467 H       1  UNL1        0.1438
      9 H          62.7614   87.8279   14.9485 H       1  UNL1        0.1438
     10 C          65.7514   92.8621   12.0172 C.2     1  UNL1        0.0824
     11 C          66.6363   92.5742   10.8408 C.2     1  UNL1        0.0184
     12 C          67.1909   93.7043   10.0251 C.2     1  UNL1        0.0241
     13 C          68.0834   93.7285    8.8198 C.2     1  UNL1        0.0788
     14 C          68.6544   92.5302    8.1212 C.3     1  UNL1        0.0537
     15 N          68.3047   95.1615    8.4355 N.2     1  UNL1       -0.1567
     16 N          67.5489   96.0229    9.4035 N.2     1  UNL1       -0.1661
     17 C          66.8605   95.1223   10.3858 C.3     1  UNL1        0.1893
     18 C          65.9756   95.4102   11.5622 C.2     1  UNL1        0.1030
     19 N          65.4210   94.2801   12.3779 N.2     1  UNL1       -0.2460
     20 C          68.8117   91.4014   12.8555 C.3     1  UNL1        0.0725
     21 C          68.3695   92.1756   14.0617 C.ar    1  UNL1        0.1248
     22 O          69.2258   93.0932   14.8831 O.2     1  UNL1       -0.4546
     23 C          68.3787   93.6528   15.9874 C.ar    1  UNL1        0.1792
     24 C          66.9990   93.0810   15.8485 C.ar    1  UNL1        0.0448
     25 C          66.9933   92.1681   14.6584 C.ar    1  UNL1        0.0512
     26 O          62.2911   89.0358   12.6386 O.3     1  UNL1       -0.4712
     27 C          62.4469   88.1293   11.4538 C.3     1  UNL1        0.2211
     28 C          62.3859   86.6415   11.6347 C.3     1  UNL1        0.0995
     29 N          61.4244   85.8260   10.8220 N.3     1  UNL1       -0.3190
     30 H          61.5172   84.8416   11.0725 H       1  UNL1        0.1189
     31 H          61.6310   85.9454    9.8303 H       1  UNL1        0.1189
     32 C          63.2864   85.9692   12.6284 C.3     1  UNL1        0.0472
     33 C          62.9275   84.6179   13.1715 C.2     1  UNL1       -0.0005
     34 C          62.4280   84.3283   14.5560 C.2     1  UNL1        0.0942
     35 N          62.1968   82.8503   14.6656 N.2     1  UNL1       -0.2482
     36 C          62.5535   82.2264   13.3490 C.2     1  UNL1        0.0631
     37 C          62.5255   80.8047   12.8716 C.3     1  UNL1        0.0717
     38 C          62.9490   80.4754   11.4708 C.2     1  UNL1       -0.0198
     39 C          63.4005   81.5678   10.5474 C.2     1  UNL1       -0.0042
     40 C          63.4286   82.9896   11.0248 C.2     1  UNL1        0.0006
     41 C          63.0051   83.3188   12.4256 C.2     1  UNL1        0.0114
@<TRIPOS>BOND
     1    20    21    1
     2    21    22   ar
     3    22    23   ar
     4    23    24   ar
     5    24    25   ar
     6    25     1    1
     7     1     2   ar
     8     2     3   ar
     9     3     4    1
    10     3     5   ar
    11     5    26    1
    12    26    27    1
    13    27    28    1
    14    28    29    1
    15    28    32    1
    16    32    33    1
    17    33    34    2
    18    34    35    1
    19    35    36    2
    20    36    37    1
    21    37    38    1
    22    38    39    2
    23    39    40    1
    24    40    41    2
    25     5     6   ar
    26     6     7   ar
    27     7    10    1
    28    10    11    2
    29    11    12    1
    30    12    13    2
    31    13    14    1
    32    13    15    1
    33    15    16    2
    34    16    17    1
    35    17    18    1
    36    18    19    2
    37    25    21   ar
    38     7     1   ar
    39    19    10    1
    40    41    33    1
    41    17    12    1
    42    41    36    1
    43     4     8    1
    44     4     9    1
    45    29    30    1
    46    29    31    1
@<TRIPOS>MOLECULE
*****
 41 46 0 0 0
SMALL
GASTEIGER

@<TRIPOS>ATOM
      1 C          61.7438   87.0074    9.4155 C.ar    1  UNL1        0.0870
      2 N          61.3514   88.4501    9.2952 N.ar    1  UNL1       -0.2279
      3 C          61.5534   89.3814   10.4535 C.ar    1  UNL1        0.1596
      4 N          61.1610   90.8242   10.3332 N.pl3   1  UNL1       -0.3402
      5 C          62.1478   88.8700   11.7323 C.ar    1  UNL1        0.1696
      6 C          62.5402   87.4272   11.8527 C.ar    1  UNL1        0.0428
      7 C          62.3382   86.4959   10.6942 C.ar    1  UNL1        0.0385
      8 H          60.7709   91.1599    9.4939 H       1  UNL1        0.1438
      9 H          61.2936   91.4354   11.0935 H       1  UNL1        0.1438
     10 C          62.7306   85.0532   10.8146 C.2     1  UNL1        0.0824
     11 C          62.1930   84.2211   11.9409 C.2     1  UNL1        0.0184
     12 C          62.5854   82.7784   12.0612 C.2     1  UNL1        0.0241
     13 C          62.2183   81.7180   13.0567 C.2     1  UNL1        0.0788
     14 C          61.3079   81.8930   14.2359 C.3     1  UNL1        0.0537
     15 N          62.9214   80.4519   12.6659 N.2     1  UNL1       -0.1567
     16 N          63.7230   80.7299   11.4289 N.2     1  UNL1       -0.1661
     17 C          63.5154   82.1676   11.0552 C.3     1  UNL1        0.1893
     18 C          64.0530   82.9997    9.9289 C.2     1  UNL1        0.1030
     19 N          63.6606   84.4424    9.8085 N.2     1  UNL1       -0.2460
     20 C          58.9270   86.4636    7.8602 C.3     1  UNL1        0.0725
     21 C          60.2470   85.8261    7.5422 C.ar    1  UNL1        0.1248
     22 O          60.5041   84.8267    6.4536 O.2     1  UNL1       -0.4546
     23 C          61.9577   84.4591    6.4957 C.ar    1  UNL1        0.1792
     24 C          62.5991   85.2312    7.6103 C.ar    1  UNL1        0.0448
     25 C          61.5418   86.0760    8.2571 C.ar    1  UNL1        0.0512
     26 O          62.3499   89.8013   12.8907 O.3     1  UNL1       -0.4712
     27 C          63.4786   90.7890   12.8708 C.3     1  UNL1        0.2211
     28 C          64.4822   90.8034   13.9856 C.3     1  UNL1        0.0995
     29 N          64.9370   92.1085   14.5684 N.3     1  UNL1       -0.3190
     30 H          65.6147   91.9319   15.3100 H       1  UNL1        0.1189
     31 H          64.1346   92.6073   14.9528 H       1  UNL1        0.1189
     32 C          65.0309   89.5126   14.5175 C.3     1  UNL1        0.0472
     33 C          64.1716   88.6271   15.3704 C.2     1  UNL1       -0.0005
     34 C          63.2164   89.0840   16.4330 C.2     1  UNL1        0.0942
     35 N          62.5711   87.8686   17.0298 N.2     1  UNL1       -0.2482
     36 C          63.1273   86.6605   16.3361 C.2     1  UNL1        0.0631
     37 C          62.8609   85.1942   16.5058 C.3     1  UNL1        0.0717
     38 C          63.5837   84.1967   15.6499 C.2     1  UNL1       -0.0198
     39 C          64.5729   84.6655   14.6244 C.2     1  UNL1       -0.0042
     40 C          64.8393   86.1318   14.4547 C.2     1  UNL1        0.0006
     41 C          64.1165   87.1293   15.3105 C.2     1  UNL1        0.0114
@<TRIPOS>BOND
     1    20    21    1
     2    21    22   ar
     3    22    23   ar
     4    23    24   ar
     5    24    25   ar
     6    25     1    1
     7     1     2   ar
     8     2     3   ar
     9     3     4    1
    10     3     5   ar
    11     5    26    1
    12    26    27    1
    13    27    28    1
    14    28    29    1
    15    28    32    1
    16    32    33    1
    17    33    34    2
    18    34    35    1
    19    35    36    2
    20    36    37    1
    21    37    38    1
    22    38    39    2
    23    39    40    1
    24    40    41    2
    25     5     6   ar
    26     6     7   ar
    27     7    10    1
    28    10    11    2
    29    11    12    1
    30    12    13    2
    31    13    14    1
    32    13    15    1
    33    15    16    2
    34    16    17    1
    35    17    18    1
    36    18    19    2
    37    25    21   ar
    38     7     1   ar
    39    19    10    1
    40    41    33    1
    41    17    12    1
    42    41    36    1
    43     4     8    1
    44     4     9    1
    45    29    30    1
    46    29    31    1
@<TRIPOS>MOLECULE
*****
 41 46 0 0 0
SMALL
GASTEIGER

@<TRIPOS>ATOM
      1 C          61.8630   87.0893    9.5205 C.ar    1  UNL1        0.0870
      2 N          61.5283   88.5471    9.4086 N.ar    1  UNL1       -0.2279
      3 C          61.7812   89.4658   10.5671 C.ar    1  UNL1        0.1596
      4 N          61.4464   90.9237   10.4552 N.pl3   1  UNL1       -0.3402
      5 C          62.3688   88.9266   11.8376 C.ar    1  UNL1        0.1696
      6 C          62.7036   87.4687   11.9495 C.ar    1  UNL1        0.0428
      7 C          62.4507   86.5501   10.7909 C.ar    1  UNL1        0.0385
      8 H          61.0608   91.2776    9.6214 H       1  UNL1        0.1438
      9 H          61.6124   91.5266   11.2156 H       1  UNL1        0.1438
     10 C          62.7854   85.0922   10.9028 C.2     1  UNL1        0.0824
     11 C          62.2897   84.2965   12.0738 C.2     1  UNL1        0.0184
     12 C          62.6244   82.8387   12.1857 C.2     1  UNL1        0.0241
     13 C          62.2794   81.8059   13.2174 C.2     1  UNL1        0.0788
     14 C          61.4609   82.0337   14.4535 C.3     1  UNL1        0.0537
     15 N          62.8966   80.5053   12.7959 N.2     1  UNL1       -0.1567
     16 N          63.6231   80.7344   11.5037 N.2     1  UNL1       -0.1661
     17 C          63.4549   82.1764   11.1266 C.3     1  UNL1        0.1893
     18 C          63.9506   82.9720    9.9556 C.2     1  UNL1        0.1030
     19 N          63.6159   84.4299    9.8437 N.2     1  UNL1       -0.2460
     20 C          58.9929   86.6104    8.0433 C.3     1  UNL1        0.0725
     21 C          60.2909   85.9505    7.6830 C.ar    1  UNL1        0.1248
     22 O          60.4975   84.9546    6.5805 O.2     1  UNL1       -0.4546
     23 C          61.9444   84.5593    6.5781 C.ar    1  UNL1        0.1792
     24 C          62.6321   85.3108    7.6792 C.ar    1  UNL1        0.0448
     25 C          61.6102   86.1706    8.3620 C.ar    1  UNL1        0.0512
     26 O          62.6217   89.8452   12.9961 O.3     1  UNL1       -0.4712
     27 C          63.4392   89.3742   14.1621 C.3     1  UNL1        0.2211
     28 C          64.1408   90.3701   15.0373 C.3     1  UNL1        0.0995
     29 N          63.3854   91.0779   16.1228 N.3     1  UNL1       -0.3190
     30 H          64.0131   91.7137   16.6150 H       1  UNL1        0.1189
     31 H          63.0120   90.3926   16.7797 H       1  UNL1        0.1189
     32 C          65.5978   90.6583   14.8269 C.3     1  UNL1        0.0472
     33 C          66.0303   91.9988   14.3112 C.2     1  UNL1       -0.0005
     34 C          66.8017   93.0317   15.0782 C.2     1  UNL1        0.0942
     35 N          67.0155   94.2130   14.1789 N.2     1  UNL1       -0.2482
     36 C          66.3763   93.9103   12.8561 C.2     1  UNL1        0.0631
     37 C          66.2700   94.7039   11.5877 C.3     1  UNL1        0.0717
     38 C          65.5549   94.1290   10.4011 C.2     1  UNL1       -0.0198
     39 C          64.9460   92.7606   10.4828 C.2     1  UNL1       -0.0042
     40 C          65.0523   91.9670   11.7512 C.2     1  UNL1        0.0006
     41 C          65.7674   92.5418   12.9378 C.2     1  UNL1        0.0114
@<TRIPOS>BOND
     1    20    21    1
     2    21    22   ar
     3    22    23   ar
     4    23    24   ar
     5    24    25   ar
     6    25     1    1
     7     1     2   ar
     8     2     3   ar
     9     3     4    1
    10     3     5   ar
    11     5    26    1
    12    26    27    1
    13    27    28    1
    14    28    29    1
    15    28    32    1
    16    32    33    1
    17    33    34    2
    18    34    35    1
    19    35    36    2
    20    36    37    1
    21    37    38    1
    22    38    39    2
    23    39    40    1
    24    40    41    2
    25     5     6   ar
    26     6     7   ar
    27     7    10    1
    28    10    11    2
    29    11    12    1
    30    12    13    2
    31    13    14    1
    32    13    15    1
    33    15    16    2
    34    16    17    1
    35    17    18    1
    36    18    19    2
    37    25    21   ar
    38     7     1   ar
    39    19    10    1
    40    41    33    1
    41    17    12    1
    42    41    36    1
    43     4     8    1
    44     4     9    1
    45    29    30    1
    46    29    31    1
@<TRIPOS>MOLECULE
*****
 41 46 0 0 0
SMALL
GASTEIGER

@<TRIPOS>ATOM
      1 C          61.8858   87.1410    9.5288 C.ar    1  UNL1        0.0870
      2 N          61.5913   88.6079    9.4226 N.ar    1  UNL1       -0.2279
      3 C          61.9458   89.5279   10.5530 C.ar    1  UNL1        0.1596
      4 N          61.6513   90.9948   10.4468 N.pl3   1  UNL1       -0.3402
      5 C          62.5949   88.9808   11.7898 C.ar    1  UNL1        0.1696
      6 C          62.8894   87.5139   11.8961 C.ar    1  UNL1        0.0428
      7 C          62.5348   86.5940   10.7655 C.ar    1  UNL1        0.0385
      8 H          61.2253   91.3539    9.6351 H       1  UNL1        0.1438
      9 H          61.8840   91.5986   11.1888 H       1  UNL1        0.1438
     10 C          62.8294   85.1270   10.8718 C.2     1  UNL1        0.0824
     11 C          62.3391   84.3474   12.0557 C.2     1  UNL1        0.0184
     12 C          62.6336   82.8804   12.1619 C.2     1  UNL1        0.0241
     13 C          62.2835   81.8593   13.2034 C.2     1  UNL1        0.0788
     14 C          61.5022   82.1122   14.4586 C.3     1  UNL1        0.0537
     15 N          62.8520   80.5408   12.7694 N.2     1  UNL1       -0.1567
     16 N          63.5534   80.7472   11.4596 N.2     1  UNL1       -0.1661
     17 C          63.4184   82.1931   11.0842 C.3     1  UNL1        0.1893
     18 C          63.9087   82.9727    9.9003 C.2     1  UNL1        0.1030
     19 N          63.6142   84.4396    9.7940 N.2     1  UNL1       -0.2460
     20 C          58.9174   86.7542    8.2294 C.3     1  UNL1        0.0725
     21 C          60.1668   86.0433    7.8011 C.ar    1  UNL1        0.1248
     22 O          60.2712   85.0297    6.7002 O.2     1  UNL1       -0.4546
     23 C          61.7001   84.5811    6.6172 C.ar    1  UNL1        0.1792
     24 C          62.4789   85.3173    7.6667 C.ar    1  UNL1        0.0448
     25 C          61.5313   86.2210    8.3983 C.ar    1  UNL1        0.0512
     26 O          62.9494   89.9008   12.9203 O.3     1  UNL1       -0.4712
     27 C          63.9724   90.9788   12.7173 C.3     1  UNL1        0.2211
     28 C          65.0241   91.2206   13.7591 C.3     1  UNL1        0.0995
     29 N          64.7062   91.0069   15.2094 N.3     1  UNL1       -0.3190
     30 H          65.5304   91.2165   15.7726 H       1  UNL1        0.1189
     31 H          64.4310   90.0360   15.3577 H       1  UNL1        0.1189
     32 C          66.3938   91.6760   13.3507 C.3     1  UNL1        0.0472
     33 C          66.5517   92.8725   12.4600 C.2     1  UNL1       -0.0005
     34 C          66.0784   94.2639   12.7602 C.2     1  UNL1        0.0942
     35 N          66.4448   95.1389   11.5983 N.2     1  UNL1       -0.2482
     36 C          67.1446   94.2884   10.5800 C.2     1  UNL1        0.0631
     37 C          67.7302   94.6085    9.2367 C.3     1  UNL1        0.0717
     38 C          68.3818   93.5278    8.4258 C.2     1  UNL1       -0.0198
     39 C          68.4479   92.1271    8.9584 C.2     1  UNL1       -0.0042
     40 C          67.8623   91.8070   10.3017 C.2     1  UNL1        0.0006
     41 C          67.2107   92.8877   11.1125 C.2     1  UNL1        0.0114
@<TRIPOS>BOND
     1    20    21    1
     2    21    22   ar
     3    22    23   ar
     4    23    24   ar
     5    24    25   ar
     6    25     1    1
     7     1     2   ar
     8     2     3   ar
     9     3     4    1
    10     3     5   ar
    11     5    26    1
    12    26    27    1
    13    27    28    1
    14    28    29    1
    15    28    32    1
    16    32    33    1
    17    33    34    2
    18    34    35    1
    19    35    36    2
    20    36    37    1
    21    37    38    1
    22    38    39    2
    23    39    40    1
    24    40    41    2
    25     5     6   ar
    26     6     7   ar
    27     7    10    1
    28    10    11    2
    29    11    12    1
    30    12    13    2
    31    13    14    1
    32    13    15    1
    33    15    16    2
    34    16    17    1
    35    17    18    1
    36    18    19    2
    37    25    21   ar
    38     7     1   ar
    39    19    10    1
    40    41    33    1
    41    17    12    1
    42    41    36    1
    43     4     8    1
    44     4     9    1
    45    29    30    1
    46    29    31    1
@<TRIPOS>MOLECULE
*****
 41 46 0 0 0
SMALL
GASTEIGER

@<TRIPOS>ATOM
      1 C          65.2368   91.8218   13.3481 C.ar    1  UNL1        0.0870
      2 N          65.5294   92.6999   12.1677 N.ar    1  UNL1       -0.2279
      3 C          64.7297   92.5532   10.9072 C.ar    1  UNL1        0.1596
      4 N          65.0224   93.4313    9.7268 N.pl3   1  UNL1       -0.3402
      5 C          63.6373   91.5283   10.8270 C.ar    1  UNL1        0.1696
      6 C          63.3447   90.6502   12.0074 C.ar    1  UNL1        0.0428
      7 C          64.1444   90.7970   13.2679 C.ar    1  UNL1        0.0385
      8 H          65.7393   94.1039    9.7794 H       1  UNL1        0.1438
      9 H          64.4975   93.3350    8.8995 H       1  UNL1        0.1438
     10 C          63.8518   89.9189   14.4483 C.2     1  UNL1        0.0824
     11 C          64.1424   88.4489   14.3799 C.2     1  UNL1        0.0184
     12 C          63.8497   87.5708   15.5603 C.2     1  UNL1        0.0241
     13 C          64.0288   86.0986   15.7850 C.2     1  UNL1        0.0788
     14 C          64.5831   85.1167   14.7957 C.3     1  UNL1        0.0537
     15 N          63.5563   85.7805   17.1727 N.2     1  UNL1       -0.1567
     16 N          63.0852   87.0563   17.8055 N.2     1  UNL1       -0.1661
     17 C          63.2665   88.1627   16.8091 C.3     1  UNL1        0.1893
     18 C          62.9759   89.6327   16.8775 C.2     1  UNL1        0.1030
     19 N          63.2686   90.5108   15.6971 N.2     1  UNL1       -0.2460
     20 C          68.4747   91.5127   13.6123 C.3     1  UNL1        0.0725
     21 C          67.5248   91.8265   14.7301 C.ar    1  UNL1        0.1248
     22 O          67.8965   92.0532   16.1655 O.2     1  UNL1       -0.4546
     23 C          66.6379   92.3355   16.9311 C.ar    1  UNL1        0.1792
     24 C          65.4883   92.2832   15.9690 C.ar    1  UNL1        0.0448
     25 C          66.0365   91.9686   14.6086 C.ar    1  UNL1        0.0512
     26 O          62.8376   91.3815    9.5665 O.3     1  UNL1       -0.4712
     27 C          62.0387   90.1350    9.3261 C.3     1  UNL1        0.2211
     28 C          60.7837   89.8860   10.1091 C.3     1  UNL1        0.0995
     29 N          60.0066   91.0409   10.6678 N.3     1  UNL1       -0.3190
     30 H          59.1890   90.6908   11.1672 H       1  UNL1        0.1189
     31 H          59.7052   91.6483    9.9058 H       1  UNL1        0.1189
     32 C          60.3058   88.4818   10.3333 C.3     1  UNL1        0.0472
     33 C          60.1101   87.5607    9.1658 C.2     1  UNL1       -0.0005
     34 C          58.8712   87.4508    8.3274 C.2     1  UNL1        0.0942
     35 N          59.1145   86.4099    7.2751 N.2     1  UNL1       -0.2482
     36 C          60.5038   85.8765    7.4631 C.2     1  UNL1        0.0631
     37 C          61.2880   84.8350    6.7213 C.3     1  UNL1        0.0717
     38 C          62.6876   84.5049    7.1480 C.2     1  UNL1       -0.0198
     39 C          63.3029   85.2161    8.3166 C.2     1  UNL1       -0.0042
     40 C          62.5187   86.2575    9.0584 C.2     1  UNL1        0.0006
     41 C          61.1191   86.5877    8.6317 C.2     1  UNL1        0.0114
@<TRIPOS>BOND
     1    20    21    1
     2    21    22   ar
     3    22    23   ar
     4    23    24   ar
     5    24    25   ar
     6    25     1    1
     7     1     2   ar
     8     2     3   ar
     9     3     4    1
    10     3     5   ar
    11     5    26    1
    12    26    27    1
    13    27    28    1
    14    28    29    1
    15    28    32    1
    16    32    33    1
    17    33    34    2
    18    34    35    1
    19    35    36    2
    20    36    37    1
    21    37    38    1
    22    38    39    2
    23    39    40    1
    24    40    41    2
    25     5     6   ar
    26     6     7   ar
    27     7    10    1
    28    10    11    2
    29    11    12    1
    30    12    13    2
    31    13    14    1
    32    13    15    1
    33    15    16    2
    34    16    17    1
    35    17    18    1
    36    18    19    2
    37    25    21   ar
    38     7     1   ar
    39    19    10    1
    40    41    33    1
    41    17    12    1
    42    41    36    1
    43     4     8    1
    44     4     9    1
    45    29    30    1
    46    29    31    1
@<TRIPOS>MOLECULE
*****
 41 46 0 0 0
SMALL
GASTEIGER

@<TRIPOS>ATOM
      1 C          62.8954   88.3203   11.9299 C.ar    1  UNL1        0.0870
      2 N          63.0051   89.7796   11.6004 N.ar    1  UNL1       -0.2279
      3 C          63.7685   90.6980   12.5079 C.ar    1  UNL1        0.1596
      4 N          63.8783   92.1573   12.1784 N.pl3   1  UNL1       -0.3402
      5 C          64.4223   90.1572   13.7450 C.ar    1  UNL1        0.1696
      6 C          64.3126   88.6980   14.0745 C.ar    1  UNL1        0.0428
      7 C          63.5491   87.7796   13.1669 C.ar    1  UNL1        0.0385
      8 H          63.4492   92.5122   11.3666 H       1  UNL1        0.1438
      9 H          64.3793   92.7601   12.7741 H       1  UNL1        0.1438
     10 C          63.4394   86.3203   13.4964 C.2     1  UNL1        0.0824
     11 C          63.6420   85.2919   12.4235 C.2     1  UNL1        0.0184
     12 C          63.5323   83.8326   12.7530 C.2     1  UNL1        0.0241
     13 C          63.6798   82.5998   11.9113 C.2     1  UNL1        0.0788
     14 C          63.9934   82.5656   10.4449 C.3     1  UNL1        0.0537
     15 N          63.4587   81.4070   12.7936 N.2     1  UNL1       -0.1567
     16 N          63.1745   81.9028   14.1805 N.2     1  UNL1       -0.1661
     17 C          63.2200   83.4018   14.1554 C.3     1  UNL1        0.1893
     18 C          63.0174   84.4303   15.2283 C.2     1  UNL1        0.1030
     19 N          63.1271   85.8895   14.8988 N.2     1  UNL1       -0.2460
     20 C          59.6561   88.2673   11.5382 C.3     1  UNL1        0.0725
     21 C          60.6430   87.3775   10.8424 C.ar    1  UNL1        0.1248
     22 O          60.3143   86.3071    9.8443 O.2     1  UNL1       -0.4546
     23 C          61.6001   85.6699    9.4075 C.ar    1  UNL1        0.1792
     24 C          62.7235   86.3465   10.1356 C.ar    1  UNL1        0.0448
     25 C          62.1320   87.4019   11.0224 C.ar    1  UNL1        0.0512
     26 O          65.1857   91.0757   14.6525 O.3     1  UNL1       -0.4712
     27 C          66.6855   91.0750   14.6311 C.3     1  UNL1        0.2211
     28 C          67.4267   92.2038   13.9779 C.3     1  UNL1        0.0995
     29 N          68.9070   92.3431   14.1761 N.3     1  UNL1       -0.3190
     30 H          69.2433   93.1587   13.6642 H       1  UNL1        0.1189
     31 H          69.3767   91.5067   13.8295 H       1  UNL1        0.1189
     32 C          66.6875   93.1932   13.1266 C.3     1  UNL1        0.0472
     33 C          66.9999   93.3049   11.6637 C.2     1  UNL1       -0.0005
     34 C          67.6307   92.2424   10.8132 C.2     1  UNL1        0.0942
     35 N          67.7569   92.7796    9.4184 N.2     1  UNL1       -0.2482
     36 C          67.2042   94.1740    9.4068 C.2     1  UNL1        0.0631
     37 C          67.0665   95.1900    8.3120 C.3     1  UNL1        0.0717
     38 C          66.4609   96.5307    8.6048 C.2     1  UNL1       -0.0198
     39 C          65.9930   96.8553    9.9925 C.2     1  UNL1       -0.0042
     40 C          66.1307   95.8393   11.0874 C.2     1  UNL1        0.0006
     41 C          66.7363   94.4987   10.7945 C.2     1  UNL1        0.0114
@<TRIPOS>BOND
     1    20    21    1
     2    21    22   ar
     3    22    23   ar
     4    23    24   ar
     5    24    25   ar
     6    25     1    1
     7     1     2   ar
     8     2     3   ar
     9     3     4    1
    10     3     5   ar
    11     5    26    1
    12    26    27    1
    13    27    28    1
    14    28    29    1
    15    28    32    1
    16    32    33    1
    17    33    34    2
    18    34    35    1
    19    35    36    2
    20    36    37    1
    21    37    38    1
    22    38    39    2
    23    39    40    1
    24    40    41    2
    25     5     6   ar
    26     6     7   ar
    27     7    10    1
    28    10    11    2
    29    11    12    1
    30    12    13    2
    31    13    14    1
    32    13    15    1
    33    15    16    2
    34    16    17    1
    35    17    18    1
    36    18    19    2
    37    25    21   ar
    38     7     1   ar
    39    19    10    1
    40    41    33    1
    41    17    12    1
    42    41    36    1
    43     4     8    1
    44     4     9    1
    45    29    30    1
    46    29    31    1
@<TRIPOS>MOLECULE
*****
 41 46 0 0 0
SMALL
GASTEIGER

@<TRIPOS>ATOM
      1 C          62.9128   88.2621   11.9774 C.ar    1  UNL1        0.0870
      2 N          63.0402   89.7214   11.6546 N.ar    1  UNL1       -0.2279
      3 C          63.8132   90.6267   12.5673 C.ar    1  UNL1        0.1596
      4 N          63.9406   92.0860   12.2445 N.pl3   1  UNL1       -0.3402
      5 C          64.4589   90.0727   13.8027 C.ar    1  UNL1        0.1696
      6 C          64.3315   88.6134   14.1255 C.ar    1  UNL1        0.0428
      7 C          63.5584   87.7081   13.2128 C.ar    1  UNL1        0.0385
      8 H          63.5169   92.4497   11.4337 H       1  UNL1        0.1438
      9 H          64.4480   92.6802   12.8435 H       1  UNL1        0.1438
     10 C          63.4310   86.2488   13.5355 C.2     1  UNL1        0.0824
     11 C          63.6461   85.2220   12.4635 C.2     1  UNL1        0.0184
     12 C          63.5187   83.7627   12.7863 C.2     1  UNL1        0.0241
     13 C          63.6728   82.5312   11.9438 C.2     1  UNL1        0.0788
     14 C          64.0142   82.4989   10.4836 C.3     1  UNL1        0.0537
     15 N          63.4254   81.3376   12.8180 N.2     1  UNL1       -0.1567
     16 N          63.1186   81.8315   14.2007 N.2     1  UNL1       -0.1661
     17 C          63.1762   83.3302   14.1812 C.3     1  UNL1        0.1893
     18 C          62.9611   84.3570   15.2532 C.2     1  UNL1        0.1030
     19 N          63.0885   85.8163   14.9304 N.2     1  UNL1       -0.2460
     20 C          59.6803   88.2945   11.5307 C.3     1  UNL1        0.0725
     21 C          60.6539   87.3717   10.8595 C.ar    1  UNL1        0.1248
     22 O          60.3127   86.3018    9.8651 O.2     1  UNL1       -0.4546
     23 C          61.5876   85.6257    9.4558 C.ar    1  UNL1        0.1792
     24 C          62.7168   86.2778   10.1973 C.ar    1  UNL1        0.0448
     25 C          62.1397   87.3568   11.0648 C.ar    1  UNL1        0.0512
     26 O          65.2319   90.9780   14.7153 O.3     1  UNL1       -0.4712
     27 C          66.6886   91.2314   14.4626 C.3     1  UNL1        0.2211
     28 C          67.1751   92.6291   14.2182 C.3     1  UNL1        0.0995
     29 N          68.6010   92.9893   14.5134 N.3     1  UNL1       -0.3190
     30 H          68.7566   93.9723   14.2901 H       1  UNL1        0.1189
     31 H          69.2220   92.4098   13.9485 H       1  UNL1        0.1189
     32 C          66.2358   93.6667   13.6784 C.3     1  UNL1        0.0472
     33 C          66.5104   94.3091   12.3511 C.2     1  UNL1       -0.0005
     34 C          66.1992   95.7280   11.9771 C.2     1  UNL1        0.0942
     35 N          66.6409   95.9412   10.5595 N.2     1  UNL1       -0.2482
     36 C          67.2249   94.6541   10.0574 C.2     1  UNL1        0.0631
     37 C          67.8198   94.2702    8.7350 C.3     1  UNL1        0.0717
     38 C          68.3340   92.8777    8.5199 C.2     1  UNL1       -0.0198
     39 C          68.2533   91.8689    9.6271 C.2     1  UNL1       -0.0042
     40 C          67.6585   92.2528   10.9495 C.2     1  UNL1        0.0006
     41 C          67.1443   93.6454   11.1647 C.2     1  UNL1        0.0114
@<TRIPOS>BOND
     1    20    21    1
     2    21    22   ar
     3    22    23   ar
     4    23    24   ar
     5    24    25   ar
     6    25     1    1
     7     1     2   ar
     8     2     3   ar
     9     3     4    1
    10     3     5   ar
    11     5    26    1
    12    26    27    1
    13    27    28    1
    14    28    29    1
    15    28    32    1
    16    32    33    1
    17    33    34    2
    18    34    35    1
    19    35    36    2
    20    36    37    1
    21    37    38    1
    22    38    39    2
    23    39    40    1
    24    40    41    2
    25     5     6   ar
    26     6     7   ar
    27     7    10    1
    28    10    11    2
    29    11    12    1
    30    12    13    2
    31    13    14    1
    32    13    15    1
    33    15    16    2
    34    16    17    1
    35    17    18    1
    36    18    19    2
    37    25    21   ar
    38     7     1   ar
    39    19    10    1
    40    41    33    1
    41    17    12    1
    42    41    36    1
    43     4     8    1
    44     4     9    1
    45    29    30    1
    46    29    31    1
@<TRIPOS>MOLECULE
*****
 41 46 0 0 0
SMALL
GASTEIGER

@<TRIPOS>ATOM
      1 C          63.1569   86.9090   12.6789 C.ar    1  UNL1        0.0870
      2 N          63.9942   87.4240   13.8119 N.ar    1  UNL1       -0.2279
      3 C          64.1868   88.9007   13.9913 C.ar    1  UNL1        0.1596
      4 N          65.0241   89.4157   15.1243 N.pl3   1  UNL1       -0.3402
      5 C          63.5422   89.8625   13.0375 C.ar    1  UNL1        0.1696
      6 C          62.7049   89.3475   11.9045 C.ar    1  UNL1        0.0428
      7 C          62.5123   87.8707   11.7252 C.ar    1  UNL1        0.0385
      8 H          65.4472   88.7845   15.7502 H       1  UNL1        0.1438
      9 H          65.1506   90.3849   15.2420 H       1  UNL1        0.1438
     10 C          61.6750   87.3557   10.5922 C.2     1  UNL1        0.0824
     11 C          62.3001   86.5128    9.5205 C.2     1  UNL1        0.0184
     12 C          61.4628   85.9978    8.3874 C.2     1  UNL1        0.0241
     13 C          61.7983   85.1508    7.1958 C.2     1  UNL1        0.0788
     14 C          63.1512   84.5966    6.8607 C.3     1  UNL1        0.0537
     15 N          60.5431   84.9553    6.3979 N.2     1  UNL1       -0.1567
     16 N          59.4321   85.6815    7.0966 N.2     1  UNL1       -0.1661
     17 C          60.0004   86.3258    8.3261 C.3     1  UNL1        0.1893
     18 C          59.3753   87.1687    9.3979 C.2     1  UNL1        0.1030
     19 N          60.2126   87.6837   10.5309 N.2     1  UNL1       -0.2460
     20 C          62.2225   84.8020   14.9891 C.3     1  UNL1        0.0725
     21 C          62.5347   84.4638   13.5615 C.ar    1  UNL1        0.1248
     22 O          62.4723   83.0977   12.9450 O.2     1  UNL1       -0.4546
     23 C          62.8632   83.2220   11.5022 C.ar    1  UNL1        0.1792
     24 C          63.1672   84.6648   11.2269 C.ar    1  UNL1        0.0448
     25 C          62.9642   85.4323   12.4996 C.ar    1  UNL1        0.0512
     26 O          63.7349   91.3392   13.2169 O.3     1  UNL1       -0.4712
     27 C          64.7399   92.0717   12.3783 C.3     1  UNL1        0.2211
     28 C          66.0308   92.5332   12.9872 C.3     1  UNL1        0.0995
     29 N          66.0226   93.2698   14.2938 N.3     1  UNL1       -0.3190
     30 H          66.9793   93.5058   14.5571 H       1  UNL1        0.1189
     31 H          65.6075   92.6791   15.0145 H       1  UNL1        0.1189
     32 C          67.3299   92.2583   12.2893 C.3     1  UNL1        0.0472
     33 C          67.5519   92.7595   10.8930 C.2     1  UNL1       -0.0005
     34 C          68.2055   91.9996    9.7770 C.2     1  UNL1        0.0942
     35 N          68.2168   92.8791    8.5619 N.2     1  UNL1       -0.2482
     36 C          67.5702   94.1824    8.9270 C.2     1  UNL1        0.0631
     37 C          67.3026   95.4270    8.1336 C.3     1  UNL1        0.0717
     38 C          66.6240   96.5976    8.7810 C.2     1  UNL1       -0.0198
     39 C          66.2131   96.5237   10.2217 C.2     1  UNL1       -0.0042
     40 C          66.4807   95.2791   11.0150 C.2     1  UNL1        0.0006
     41 C          67.1593   94.1085   10.3677 C.2     1  UNL1        0.0114
@<TRIPOS>BOND
     1    20    21    1
     2    21    22   ar
     3    22    23   ar
     4    23    24   ar
     5    24    25   ar
     6    25     1    1
     7     1     2   ar
     8     2     3   ar
     9     3     4    1
    10     3     5   ar
    11     5    26    1
    12    26    27    1
    13    27    28    1
    14    28    29    1
    15    28    32    1
    16    32    33    1
    17    33    34    2
    18    34    35    1
    19    35    36    2
    20    36    37    1
    21    37    38    1
    22    38    39    2
    23    39    40    1
    24    40    41    2
    25     5     6   ar
    26     6     7   ar
    27     7    10    1
    28    10    11    2
    29    11    12    1
    30    12    13    2
    31    13    14    1
    32    13    15    1
    33    15    16    2
    34    16    17    1
    35    17    18    1
    36    18    19    2
    37    25    21   ar
    38     7     1   ar
    39    19    10    1
    40    41    33    1
    41    17    12    1
    42    41    36    1
    43     4     8    1
    44     4     9    1
    45    29    30    1
    46    29    31    1
