@<TRIPOS>MOLECULE
*****
 35 39 0 0 0
SMALL
GASTEIGER

@<TRIPOS>ATOM
      1 C          63.1689   88.5627   12.3359 C.ar    1  UNL1        0.0662
      2 C          63.2662   87.1687   12.8814 C.ar    1  UNL1        0.0883
      3 C          62.8613   85.8394   12.3165 C.ar    1  UNL1        0.2812
      4 O          62.2225   85.6073   10.9794 O.2     1  UNL1       -0.2651
      5 N          63.2075   84.7831   13.3237 N.ar    1  UNL1       -0.2166
      6 N          63.8263   85.4595   14.5109 N.ar    1  UNL1       -0.2886
      7 C          63.8626   86.9340   14.2375 C.ar    1  UNL1        0.0830
      8 C          64.3617   88.0931   15.0483 C.ar    1  UNL1        0.0793
      9 C          64.2643   89.4870   14.5029 C.ar    1  UNL1        0.2625
     10 O          64.7634   90.6462   15.3137 O.2     1  UNL1       -0.2669
     11 N          63.6680   89.7218   13.1468 N.ar    1  UNL1       -0.2931
     12 H          64.1516   85.0140   15.3263 H       1  UNL1        0.1875
     13 C          62.9756   83.3091   13.1705 C.ar    1  UNL1        0.0944
     14 C          62.0910   82.5842   14.1410 C.ar    1  UNL1        0.0200
     15 C          61.8591   81.1101   13.9878 C.ar    1  UNL1        0.0016
     16 C          62.5118   80.3610   12.8640 C.ar    1  UNL1        0.0010
     17 C          63.3963   81.0859   11.8934 C.ar    1  UNL1        0.0129
     18 C          63.6282   82.5600   12.0467 C.ar    1  UNL1        0.0753
     19 CL         64.5128   83.2849   11.0761 Cl      1  UNL1       -0.0807
     20 C          62.5725   88.7975   10.9797 C.3     1  UNL1        0.1355
     21 C          60.2851   89.5655   11.9431 C.3     1  UNL1        0.1125
     22 N          61.0888   88.9599   10.8308 N.pl3   1  UNL1       -0.3006
     23 C          60.4088   88.5166    9.5694 C.ar    1  UNL1        0.0482
     24 C          59.9961   87.0841    9.4035 C.ar    1  UNL1        0.0145
     25 C          59.3161   86.6407    8.1421 C.ar    1  UNL1        0.0013
     26 C          59.0487   87.6300    7.0466 C.ar    1  UNL1        0.0001
     27 C          59.4614   89.0625    7.2125 C.ar    1  UNL1        0.0013
     28 C          60.1415   89.5058    8.4740 C.ar    1  UNL1        0.0145
     29 C          63.5706   91.1158   12.6013 C.3     1  UNL1        0.1356
     30 C          64.8063   91.8264   12.1343 C.ar    1  UNL1        0.0036
     31 C          64.9054   92.3050   10.7161 C.ar    1  UNL1        0.0183
     32 C          66.1411   93.0156   10.2491 C.ar    1  UNL1        0.0986
     33 N          67.2777   93.2476   11.2002 N.ar    1  UNL1       -0.2423
     34 C          67.1785   92.7690   12.6183 C.ar    1  UNL1        0.0986
     35 C          65.9428   92.0584   13.0854 C.ar    1  UNL1        0.0183
@<TRIPOS>BOND
     1    21    22    1
     2    22    20    1
     3    20     1    1
     4     1     2   ar
     5     2     3   ar
     6     3     4    2
     7     3     5   ar
     8     5    13    1
     9    13    14   ar
    10    14    15   ar
    11    15    16   ar
    12    16    17   ar
    13    17    18   ar
    14    18    19    1
    15     5     6   ar
    16     6     7   ar
    17     7     8   ar
    18     8     9   ar
    19     9    10    2
    20     9    11   ar
    21    11    29    1
    22    29    30    1
    23    30    31   ar
    24    31    32   ar
    25    32    33   ar
    26    33    34   ar
    27    34    35   ar
    28    22    23    1
    29    23    24   ar
    30    24    25   ar
    31    25    26   ar
    32    26    27   ar
    33    27    28   ar
    34    11     1   ar
    35    35    30   ar
    36    28    23   ar
    37     7     2   ar
    38    18    13   ar
    39     6    12    1
@<TRIPOS>MOLECULE
*****
 35 39 0 0 0
SMALL
GASTEIGER

@<TRIPOS>ATOM
      1 C          63.1476   88.7105   12.2271 C.ar    1  UNL1        0.0662
      2 C          63.2869   87.2843   12.6702 C.ar    1  UNL1        0.0883
      3 C          62.9045   85.9887   12.0181 C.ar    1  UNL1        0.2812
      4 O          62.2493   85.8362   10.6773 O.2     1  UNL1       -0.2651
      5 N          63.2922   84.8725   12.9421 N.ar    1  UNL1       -0.2166
      6 N          63.9143   85.4782   14.1653 N.ar    1  UNL1       -0.2886
      7 C          63.9110   86.9688   13.9972 C.ar    1  UNL1        0.0830
      8 C          64.3957   88.0795   14.8811 C.ar    1  UNL1        0.0793
      9 C          64.2563   89.5058   14.4380 C.ar    1  UNL1        0.2625
     10 O          64.7410   90.6165   15.3220 O.2     1  UNL1       -0.2669
     11 N          63.6323   89.8213   13.1110 N.ar    1  UNL1       -0.2931
     12 H          64.2634   84.9842   14.9420 H       1  UNL1        0.1875
     13 C          63.0928   83.4078   12.6876 C.ar    1  UNL1        0.0944
     14 C          63.4396   82.8250   11.3497 C.ar    1  UNL1        0.0200
     15 C          63.2402   81.3602   11.0953 C.ar    1  UNL1        0.0016
     16 C          62.6941   80.4782   12.1787 C.ar    1  UNL1        0.0010
     17 C          62.3473   81.0610   13.5167 C.ar    1  UNL1        0.0129
     18 C          62.5467   82.5258   13.7711 C.ar    1  UNL1        0.0753
     19 CL         62.2000   83.1086   15.1090 Cl      1  UNL1       -0.0807
     20 C          62.5235   89.0261   10.9000 C.3     1  UNL1        0.1355
     21 C          60.2200   89.6989   11.8957 C.3     1  UNL1        0.1125
     22 N          61.0315   89.1182   10.7758 N.pl3   1  UNL1       -0.3006
     23 C          60.3510   88.6295    9.5316 C.ar    1  UNL1        0.0482
     24 C          60.1192   89.5687    8.3853 C.ar    1  UNL1        0.0145
     25 C          59.4387   89.0800    7.1410 C.ar    1  UNL1        0.0013
     26 C          58.9900   87.6519    7.0431 C.ar    1  UNL1        0.0001
     27 C          59.2218   86.7127    8.1895 C.ar    1  UNL1        0.0013
     28 C          59.9023   87.2015    9.4337 C.ar    1  UNL1        0.0145
     29 C          63.4929   91.2476   12.6679 C.3     1  UNL1        0.1356
     30 C          64.6978   92.0088   12.2002 C.ar    1  UNL1        0.0036
     31 C          65.6790   92.5471   13.1990 C.ar    1  UNL1        0.0183
     32 C          66.8839   93.3083   12.7313 C.ar    1  UNL1        0.0986
     33 N          67.1076   93.5312   11.2648 N.ar    1  UNL1       -0.2423
     34 C          66.1264   92.9930   10.2662 C.ar    1  UNL1        0.0986
     35 C          64.9214   92.2317   10.7338 C.ar    1  UNL1        0.0183
@<TRIPOS>BOND
     1    21    22    1
     2    22    20    1
     3    20     1    1
     4     1     2   ar
     5     2     3   ar
     6     3     4    2
     7     3     5   ar
     8     5    13    1
     9    13    14   ar
    10    14    15   ar
    11    15    16   ar
    12    16    17   ar
    13    17    18   ar
    14    18    19    1
    15     5     6   ar
    16     6     7   ar
    17     7     8   ar
    18     8     9   ar
    19     9    10    2
    20     9    11   ar
    21    11    29    1
    22    29    30    1
    23    30    31   ar
    24    31    32   ar
    25    32    33   ar
    26    33    34   ar
    27    34    35   ar
    28    22    23    1
    29    23    24   ar
    30    24    25   ar
    31    25    26   ar
    32    26    27   ar
    33    27    28   ar
    34    11     1   ar
    35    35    30   ar
    36    28    23   ar
    37     7     2   ar
    38    18    13   ar
    39     6    12    1
@<TRIPOS>MOLECULE
*****
 35 39 0 0 0
SMALL
GASTEIGER

@<TRIPOS>ATOM
      1 C          64.0590   89.3346   13.2016 C.ar    1  UNL1        0.0662
      2 C          63.5210   87.9924   12.8029 C.ar    1  UNL1        0.0883
      3 C          63.6484   86.6344   13.4270 C.ar    1  UNL1        0.2812
      4 O          64.4018   86.3081   14.6824 O.2     1  UNL1       -0.2651
      5 N          62.8901   85.6599   12.5753 N.ar    1  UNL1       -0.2166
      6 N          62.2941   86.4156   11.4248 N.ar    1  UNL1       -0.2886
      7 C          62.6839   87.8572   11.5655 C.ar    1  UNL1        0.0830
      8 C          62.3849   89.0643   10.7267 C.ar    1  UNL1        0.0793
      9 C          62.9230   90.4066   11.1254 C.ar    1  UNL1        0.2625
     10 O          62.6239   91.6137   10.2865 O.2     1  UNL1       -0.2669
     11 N          63.7599   90.5417   12.3627 N.ar    1  UNL1       -0.2931
     12 H          61.7436   86.0327   10.7040 H       1  UNL1        0.1875
     13 C          62.7521   84.1880   12.8294 C.ar    1  UNL1        0.0944
     14 C          62.2561   83.6996   14.1581 C.ar    1  UNL1        0.0200
     15 C          62.1182   82.2276   14.4121 C.ar    1  UNL1        0.0016
     16 C          62.4762   81.2442   13.3375 C.ar    1  UNL1        0.0010
     17 C          62.9722   81.7327   12.0089 C.ar    1  UNL1        0.0129
     18 C          63.1101   83.2046   11.7548 C.ar    1  UNL1        0.0753
     19 CL         63.6062   83.6931   10.4262 Cl      1  UNL1       -0.0807
     20 C          64.8960   89.4699   14.4390 C.3     1  UNL1        0.1355
     21 C          63.7350   91.2946   15.8786 C.3     1  UNL1        0.1125
     22 N          64.9513   90.7799   15.1675 N.pl3   1  UNL1       -0.3006
     23 C          66.2230   91.5751   15.1850 C.ar    1  UNL1        0.0482
     24 C          66.3720   92.7308   16.1296 C.ar    1  UNL1        0.0145
     25 C          67.6437   93.5260   16.1471 C.ar    1  UNL1        0.0013
     26 C          68.7666   93.1656   15.2200 C.ar    1  UNL1        0.0001
     27 C          68.6176   92.0099   14.2754 C.ar    1  UNL1        0.0013
     28 C          67.3458   91.2147   14.2580 C.ar    1  UNL1        0.0145
     29 C          64.2979   91.8841   12.7614 C.3     1  UNL1        0.1356
     30 C          65.3491   92.5497   11.9235 C.ar    1  UNL1        0.0036
     31 C          65.7215   93.9793   12.1838 C.ar    1  UNL1        0.0183
     32 C          66.7727   94.6449   11.3460 C.ar    1  UNL1        0.0986
     33 N          67.4514   93.8809   10.2479 N.ar    1  UNL1       -0.2423
     34 C          67.0790   92.4515    9.9876 C.ar    1  UNL1        0.0986
     35 C          66.0278   91.7858   10.8255 C.ar    1  UNL1        0.0183
@<TRIPOS>BOND
     1    21    22    1
     2    22    20    1
     3    20     1    1
     4     1     2   ar
     5     2     3   ar
     6     3     4    2
     7     3     5   ar
     8     5    13    1
     9    13    14   ar
    10    14    15   ar
    11    15    16   ar
    12    16    17   ar
    13    17    18   ar
    14    18    19    1
    15     5     6   ar
    16     6     7   ar
    17     7     8   ar
    18     8     9   ar
    19     9    10    2
    20     9    11   ar
    21    11    29    1
    22    29    30    1
    23    30    31   ar
    24    31    32   ar
    25    32    33   ar
    26    33    34   ar
    27    34    35   ar
    28    22    23    1
    29    23    24   ar
    30    24    25   ar
    31    25    26   ar
    32    26    27   ar
    33    27    28   ar
    34    11     1   ar
    35    35    30   ar
    36    28    23   ar
    37     7     2   ar
    38    18    13   ar
    39     6    12    1
@<TRIPOS>MOLECULE
*****
 35 39 0 0 0
SMALL
GASTEIGER

@<TRIPOS>ATOM
      1 C          63.5839   89.7897   12.1878 C.ar    1  UNL1        0.0662
      2 C          64.3831   91.0590   12.1802 C.ar    1  UNL1        0.0883
      3 C          64.7269   92.0220   11.0827 C.ar    1  UNL1        0.2812
      4 O          64.3094   91.9077    9.6466 O.2     1  UNL1       -0.2651
      5 N          65.5616   93.1193   11.6736 N.ar    1  UNL1       -0.2166
      6 N          65.7337   92.8346   13.1363 N.ar    1  UNL1       -0.2886
      7 C          65.0053   91.5612   13.4494 C.ar    1  UNL1        0.0830
      8 C          64.8282   90.7941   14.7261 C.ar    1  UNL1        0.0793
      9 C          64.0290   89.5248   14.7338 C.ar    1  UNL1        0.2625
     10 O          63.8519   88.7577   16.0106 O.2     1  UNL1       -0.2669
     11 N          63.4068   89.0226   13.4647 N.ar    1  UNL1       -0.2931
     12 H          66.2364   93.3865   13.7781 H       1  UNL1        0.1875
     13 C          66.1253   94.2951   10.9321 C.ar    1  UNL1        0.0944
     14 C          65.6367   95.6797   11.2388 C.ar    1  UNL1        0.0200
     15 C          66.2004   96.8554   10.4972 C.ar    1  UNL1        0.0016
     16 C          67.2528   96.6465    9.4489 C.ar    1  UNL1        0.0010
     17 C          67.7414   95.2619    9.1422 C.ar    1  UNL1        0.0129
     18 C          67.1777   94.0862    9.8838 C.ar    1  UNL1        0.0753
     19 CL         67.6663   92.7016    9.5771 Cl      1  UNL1       -0.0807
     20 C          62.9617   89.2875   10.9187 C.3     1  UNL1        0.1355
     21 C          60.6767   90.3478   11.5551 C.3     1  UNL1        0.1125
     22 N          61.4801   89.4007   10.7138 N.pl3   1  UNL1       -0.3006
     23 C          60.8018   88.5667    9.6677 C.ar    1  UNL1        0.0482
     24 C          60.9420   87.0735    9.6917 C.ar    1  UNL1        0.0145
     25 C          60.2637   86.2396    8.6455 C.ar    1  UNL1        0.0013
     26 C          59.4451   86.8989    7.5752 C.ar    1  UNL1        0.0001
     27 C          59.3049   88.3922    7.5512 C.ar    1  UNL1        0.0013
     28 C          59.9832   89.2260    8.5975 C.ar    1  UNL1        0.0145
     29 C          62.6075   87.7532   13.4723 C.3     1  UNL1        0.1356
     30 C          63.3039   86.4279   13.3811 C.ar    1  UNL1        0.0036
     31 C          62.9830   85.4878   12.2571 C.ar    1  UNL1        0.0183
     32 C          63.6794   84.1624   12.1659 C.ar    1  UNL1        0.0986
     33 N          64.6968   83.7771   13.1987 N.ar    1  UNL1       -0.2423
     34 C          65.0177   84.7171   14.3226 C.ar    1  UNL1        0.0986
     35 C          64.3213   86.0426   14.4139 C.ar    1  UNL1        0.0183
@<TRIPOS>BOND
     1    21    22    1
     2    22    20    1
     3    20     1    1
     4     1     2   ar
     5     2     3   ar
     6     3     4    2
     7     3     5   ar
     8     5    13    1
     9    13    14   ar
    10    14    15   ar
    11    15    16   ar
    12    16    17   ar
    13    17    18   ar
    14    18    19    1
    15     5     6   ar
    16     6     7   ar
    17     7     8   ar
    18     8     9   ar
    19     9    10    2
    20     9    11   ar
    21    11    29    1
    22    29    30    1
    23    30    31   ar
    24    31    32   ar
    25    32    33   ar
    26    33    34   ar
    27    34    35   ar
    28    22    23    1
    29    23    24   ar
    30    24    25   ar
    31    25    26   ar
    32    26    27   ar
    33    27    28   ar
    34    11     1   ar
    35    35    30   ar
    36    28    23   ar
    37     7     2   ar
    38    18    13   ar
    39     6    12    1
@<TRIPOS>MOLECULE
*****
 35 39 0 0 0
SMALL
GASTEIGER

@<TRIPOS>ATOM
      1 C          63.8055   91.0476   13.0082 C.ar    1  UNL1        0.0662
      2 C          63.1848   90.5946   11.7200 C.ar    1  UNL1        0.0883
      3 C          62.2082   89.5000   11.4069 C.ar    1  UNL1        0.2812
      4 O          61.5985   88.5524   12.3971 O.2     1  UNL1       -0.2651
      5 N          61.9484   89.5193    9.9297 N.ar    1  UNL1       -0.2166
      6 N          62.7644   90.6258    9.3299 N.ar    1  UNL1       -0.2886
      7 C          63.5286   91.2904   10.4364 C.ar    1  UNL1        0.0830
      8 C          64.4930   92.4392   10.4410 C.ar    1  UNL1        0.0793
      9 C          65.1137   92.8923   11.7292 C.ar    1  UNL1        0.2625
     10 O          66.0782   94.0412   11.7337 O.2     1  UNL1       -0.2669
     11 N          64.7700   92.1965   13.0127 N.ar    1  UNL1       -0.2931
     12 H          62.7933   90.8726    8.3772 H       1  UNL1        0.1875
     13 C          61.0332   88.5944    9.1833 C.ar    1  UNL1        0.0944
     14 C          59.8851   89.1508    8.3944 C.ar    1  UNL1        0.0200
     15 C          58.9700   88.2258    7.6480 C.ar    1  UNL1        0.0016
     16 C          59.2029   86.7447    7.6905 C.ar    1  UNL1        0.0010
     17 C          60.3510   86.1883    8.4794 C.ar    1  UNL1        0.0129
     18 C          61.2661   87.1133    9.2258 C.ar    1  UNL1        0.0753
     19 CL         62.4142   86.5569   10.0147 Cl      1  UNL1       -0.0807
     20 C          63.4618   90.3518   14.2919 C.3     1  UNL1        0.1355
     21 C          65.8817   89.4943   14.6906 C.3     1  UNL1        0.1125
     22 N          64.4009   89.3339   14.8680 N.pl3   1  UNL1       -0.3006
     23 C          63.8591   88.1554   15.6215 C.ar    1  UNL1        0.0482
     24 C          63.0427   88.3691   16.8616 C.ar    1  UNL1        0.0145
     25 C          62.5009   87.1906   17.6151 C.ar    1  UNL1        0.0013
     26 C          62.7755   85.7985   17.1285 C.ar    1  UNL1        0.0001
     27 C          63.5919   85.5849   15.8884 C.ar    1  UNL1        0.0013
     28 C          64.1336   86.7634   15.1349 C.ar    1  UNL1        0.0145
     29 C          65.3907   92.6496   14.3010 C.3     1  UNL1        0.1356
     30 C          66.8836   92.6860   14.4422 C.ar    1  UNL1        0.0036
     31 C          67.7470   91.9325   13.4743 C.ar    1  UNL1        0.0183
     32 C          69.2399   91.9689   13.6154 C.ar    1  UNL1        0.0986
     33 N          69.8694   92.7587   14.7245 N.ar    1  UNL1       -0.2423
     34 C          69.0060   93.5121   15.6924 C.ar    1  UNL1        0.0986
     35 C          67.5130   93.4758   15.5513 C.ar    1  UNL1        0.0183
@<TRIPOS>BOND
     1    21    22    1
     2    22    20    1
     3    20     1    1
     4     1     2   ar
     5     2     3   ar
     6     3     4    2
     7     3     5   ar
     8     5    13    1
     9    13    14   ar
    10    14    15   ar
    11    15    16   ar
    12    16    17   ar
    13    17    18   ar
    14    18    19    1
    15     5     6   ar
    16     6     7   ar
    17     7     8   ar
    18     8     9   ar
    19     9    10    2
    20     9    11   ar
    21    11    29    1
    22    29    30    1
    23    30    31   ar
    24    31    32   ar
    25    32    33   ar
    26    33    34   ar
    27    34    35   ar
    28    22    23    1
    29    23    24   ar
    30    24    25   ar
    31    25    26   ar
    32    26    27   ar
    33    27    28   ar
    34    11     1   ar
    35    35    30   ar
    36    28    23   ar
    37     7     2   ar
    38    18    13   ar
    39     6    12    1
@<TRIPOS>MOLECULE
*****
 35 39 0 0 0
SMALL
GASTEIGER

@<TRIPOS>ATOM
      1 C          64.6436   90.3569   13.5017 C.ar    1  UNL1        0.0662
      2 C          63.8657   90.0467   12.2573 C.ar    1  UNL1        0.0883
      3 C          63.1549   88.8072   11.8008 C.ar    1  UNL1        0.2812
      4 O          63.0660   87.5135   12.5548 O.2     1  UNL1       -0.2651
      5 N          62.5485   89.0886   10.4581 N.ar    1  UNL1       -0.2166
      6 N          62.8845   90.5019   10.0846 N.ar    1  UNL1       -0.2886
      7 C          63.6987   91.0941   11.1966 C.ar    1  UNL1        0.0830
      8 C          64.3095   92.4517   11.3804 C.ar    1  UNL1        0.0793
      9 C          65.0873   92.7619   12.6249 C.ar    1  UNL1        0.2625
     10 O          65.6981   94.1196   12.8086 O.2     1  UNL1       -0.2669
     11 N          65.2544   91.7146   13.6855 N.ar    1  UNL1       -0.2931
     12 H          62.6176   90.9604    9.2553 H       1  UNL1        0.1875
     13 C          61.7467   88.1256    9.6334 C.ar    1  UNL1        0.0944
     14 C          62.3467   86.8161    9.2149 C.ar    1  UNL1        0.0200
     15 C          61.5449   85.8532    8.3903 C.ar    1  UNL1        0.0016
     16 C          60.1432   86.1998    7.9842 C.ar    1  UNL1        0.0010
     17 C          59.5432   87.5093    8.4027 C.ar    1  UNL1        0.0129
     18 C          60.3450   88.4722    9.2273 C.ar    1  UNL1        0.0753
     19 CL         59.7450   89.7817    9.6458 Cl      1  UNL1       -0.0807
     20 C          64.8107   89.3095   14.5625 C.3     1  UNL1        0.1355
     21 C          63.0068   90.3144   16.1392 C.3     1  UNL1        0.1125
     22 N          63.7512   89.1253   15.6082 N.pl3   1  UNL1       -0.3006
     23 C          63.4361   87.7521   16.1228 C.ar    1  UNL1        0.0482
     24 C          63.8892   86.5429   15.3596 C.ar    1  UNL1        0.0145
     25 C          63.5741   85.1696   15.8742 C.ar    1  UNL1        0.0013
     26 C          62.8059   85.0055   17.1522 C.ar    1  UNL1        0.0001
     27 C          62.3528   86.2147   17.9155 C.ar    1  UNL1        0.0013
     28 C          62.6680   87.5880   17.4007 C.ar    1  UNL1        0.0145
     29 C          66.0323   92.0248   14.9300 C.3     1  UNL1        0.1356
     30 C          67.4865   92.3805   14.8364 C.ar    1  UNL1        0.0036
     31 C          68.0870   93.3457   15.8152 C.ar    1  UNL1        0.0183
     32 C          69.5412   93.7014   15.7215 C.ar    1  UNL1        0.0986
     33 N          70.3949   93.0919   14.6491 N.ar    1  UNL1       -0.2423
     34 C          69.7944   92.1268   13.6705 C.ar    1  UNL1        0.0986
     35 C          68.3401   91.7711   13.7641 C.ar    1  UNL1        0.0183
@<TRIPOS>BOND
     1    21    22    1
     2    22    20    1
     3    20     1    1
     4     1     2   ar
     5     2     3   ar
     6     3     4    2
     7     3     5   ar
     8     5    13    1
     9    13    14   ar
    10    14    15   ar
    11    15    16   ar
    12    16    17   ar
    13    17    18   ar
    14    18    19    1
    15     5     6   ar
    16     6     7   ar
    17     7     8   ar
    18     8     9   ar
    19     9    10    2
    20     9    11   ar
    21    11    29    1
    22    29    30    1
    23    30    31   ar
    24    31    32   ar
    25    32    33   ar
    26    33    34   ar
    27    34    35   ar
    28    22    23    1
    29    23    24   ar
    30    24    25   ar
    31    25    26   ar
    32    26    27   ar
    33    27    28   ar
    34    11     1   ar
    35    35    30   ar
    36    28    23   ar
    37     7     2   ar
    38    18    13   ar
    39     6    12    1
@<TRIPOS>MOLECULE
*****
 35 39 0 0 0
SMALL
GASTEIGER

@<TRIPOS>ATOM
      1 C          63.4084   88.6352   12.6820 C.ar    1  UNL1        0.0662
      2 C          62.9839   87.2780   12.2048 C.ar    1  UNL1        0.0883
      3 C          63.3735   85.8952   12.6363 C.ar    1  UNL1        0.2812
      4 O          64.3482   85.5527   13.7238 O.2     1  UNL1       -0.2651
      5 N          62.6171   84.9151   11.7895 N.ar    1  UNL1       -0.2166
      6 N          61.7601   85.6921   10.8346 N.ar    1  UNL1       -0.2886
      7 C          61.9868   87.1524   11.0913 C.ar    1  UNL1        0.0830
      8 C          61.4141   88.3841   10.4549 C.ar    1  UNL1        0.0793
      9 C          61.8386   89.7414   10.9321 C.ar    1  UNL1        0.2625
     10 O          61.2659   90.9731   10.2957 O.2     1  UNL1       -0.2669
     11 N          62.8357   89.8669   12.0456 N.ar    1  UNL1       -0.2931
     12 H          61.1550   85.3105   10.1581 H       1  UNL1        0.1875
     13 C          62.7026   83.4203   11.8814 C.ar    1  UNL1        0.0944
     14 C          62.1398   82.7089   13.0759 C.ar    1  UNL1        0.0200
     15 C          62.2254   81.2141   13.1677 C.ar    1  UNL1        0.0016
     16 C          62.8738   80.4308   12.0651 C.ar    1  UNL1        0.0010
     17 C          63.4366   81.1422   10.8705 C.ar    1  UNL1        0.0129
     18 C          63.3510   82.6370   10.7787 C.ar    1  UNL1        0.0753
     19 CL         63.9139   83.3485    9.5841 Cl      1  UNL1       -0.0807
     20 C          64.4056   88.7608   13.7956 C.3     1  UNL1        0.1355
     21 C          63.8608   90.5591   15.5898 C.3     1  UNL1        0.1125
     22 N          63.9454   89.1194   15.1775 N.pl3   1  UNL1       -0.3006
     23 C          63.5699   88.0382   16.1470 C.ar    1  UNL1        0.0482
     24 C          62.9173   88.3929   17.4502 C.ar    1  UNL1        0.0145
     25 C          62.5418   87.3117   18.4197 C.ar    1  UNL1        0.0013
     26 C          62.8189   85.8757   18.0860 C.ar    1  UNL1        0.0001
     27 C          63.4716   85.5210   16.7829 C.ar    1  UNL1        0.0013
     28 C          63.8470   86.6023   15.8134 C.ar    1  UNL1        0.0145
     29 C          63.2602   91.2242   12.5228 C.3     1  UNL1        0.1356
     30 C          64.5881   91.7841   12.1068 C.ar    1  UNL1        0.0036
     31 C          65.6906   91.9267   13.1139 C.ar    1  UNL1        0.0183
     32 C          67.0186   92.4866   12.6979 C.ar    1  UNL1        0.0986
     33 N          67.2440   92.9038   11.2747 N.ar    1  UNL1       -0.2423
     34 C          66.1416   92.7611   10.2677 C.ar    1  UNL1        0.0986
     35 C          64.8136   92.2012   10.6837 C.ar    1  UNL1        0.0183
@<TRIPOS>BOND
     1    21    22    1
     2    22    20    1
     3    20     1    1
     4     1     2   ar
     5     2     3   ar
     6     3     4    2
     7     3     5   ar
     8     5    13    1
     9    13    14   ar
    10    14    15   ar
    11    15    16   ar
    12    16    17   ar
    13    17    18   ar
    14    18    19    1
    15     5     6   ar
    16     6     7   ar
    17     7     8   ar
    18     8     9   ar
    19     9    10    2
    20     9    11   ar
    21    11    29    1
    22    29    30    1
    23    30    31   ar
    24    31    32   ar
    25    32    33   ar
    26    33    34   ar
    27    34    35   ar
    28    22    23    1
    29    23    24   ar
    30    24    25   ar
    31    25    26   ar
    32    26    27   ar
    33    27    28   ar
    34    11     1   ar
    35    35    30   ar
    36    28    23   ar
    37     7     2   ar
    38    18    13   ar
    39     6    12    1
