@<TRIPOS>MOLECULE
*****
 23 25 0 0 0
SMALL
GASTEIGER

@<TRIPOS>ATOM
      1 C          61.3950   86.4081    9.3816 C.ar    1  UNL1        0.0553
      2 C          61.3073   86.1238   10.8518 C.ar    1  UNL1        0.0043
      3 C          62.1883   85.0774   11.4672 C.ar    1  UNL1       -0.0022
      4 C          63.1570   84.3151   10.6125 C.ar    1  UNL1        0.0022
      5 C          63.2447   84.5994    9.1423 C.ar    1  UNL1       -0.0022
      6 C          62.3637   85.6458    8.5269 C.ar    1  UNL1        0.0043
      7 O          60.7858   88.9077    9.0200 O.2     1  UNL1       -0.2681
      8 C          60.5140   87.4545    8.7662 C.2     1  UNL1        0.2677
      9 N          59.3612   87.0479    7.8970 N.am    1  UNL1       -0.1934
     10 O          58.4802   88.0943    7.2815 O.3     1  UNL1       -0.2949
     11 H          59.1828   86.0941    7.7304 H       1  UNL1        0.1825
     12 H          58.7918   88.9746    7.5442 H       1  UNL1        0.2414
     13 C          64.0380   83.2687   11.2279 C.3     1  UNL1        0.1573
     14 N          63.4667   82.2914   12.2120 N.ar    1  UNL1       -0.2084
     15 N          62.9661   80.9130   11.8965 N.ar    1  UNL1       -0.0426
     16 N          62.4857   80.2906   13.1739 N.ar    1  UNL1       -0.0226
     17 N          62.6893   81.2843   14.2790 N.ar    1  UNL1       -0.1076
     18 C          63.2957   82.5209   13.6845 C.ar    1  UNL1        0.1901
     19 C          63.6659   83.7679   14.4313 C.ar    1  UNL1        0.0668
     20 C          64.8986   84.5940   14.2118 C.ar    1  UNL1        0.0101
     21 C          64.8630   85.7444   15.1736 C.ar    1  UNL1        0.0076
     22 C          63.6083   85.6294   15.9876 C.ar    1  UNL1        0.0355
     23 S          62.8685   84.4078   15.5289 S.2     1  UNL1       -0.0833
@<TRIPOS>BOND
     1     7     8    2
     2     8     9   am
     3     9    10    1
     4     8     1    1
     5     1     2   ar
     6     2     3   ar
     7     3     4   ar
     8     4    13    1
     9    13    14    1
    10    14    15   ar
    11    15    16   ar
    12    16    17   ar
    13    17    18   ar
    14    18    19    1
    15    19    20   ar
    16    20    21   ar
    17    21    22   ar
    18    22    23   ar
    19     4     5   ar
    20     5     6   ar
    21     6     1   ar
    22    18    14   ar
    23    23    19   ar
    24     9    11    1
    25    10    12    1
@<TRIPOS>MOLECULE
*****
 23 25 0 0 0
SMALL
GASTEIGER

@<TRIPOS>ATOM
      1 C          63.3453   83.4357   12.1692 C.ar    1  UNL1        0.0553
      2 C          62.5605   84.6988   12.3658 C.ar    1  UNL1        0.0043
      3 C          62.2469   85.5774   11.1912 C.ar    1  UNL1       -0.0022
      4 C          62.7180   85.1929    9.8200 C.ar    1  UNL1        0.0022
      5 C          63.5028   83.9298    9.6234 C.ar    1  UNL1       -0.0022
      6 C          63.8164   83.0512   10.7980 C.ar    1  UNL1        0.0043
      7 O          64.1074   83.1674   14.6384 O.2     1  UNL1       -0.2681
      8 C          63.6589   82.5570   13.3437 C.2     1  UNL1        0.2677
      9 N          63.5240   81.0680   13.2237 N.am    1  UNL1       -0.1934
     10 O          63.8377   80.1893   14.3982 O.3     1  UNL1       -0.2949
     11 H          63.2297   80.6673   12.3739 H       1  UNL1        0.1825
     12 H          64.1106   80.7390   15.1494 H       1  UNL1        0.2414
     13 C          62.4044   86.0716    8.6454 C.3     1  UNL1        0.1573
     14 N          60.9818   86.4366    8.3405 N.ar    1  UNL1       -0.2084
     15 N          60.0698   85.7143    7.3936 N.ar    1  UNL1       -0.0426
     16 N          58.7458   86.4192    7.3968 N.ar    1  UNL1       -0.0226
     17 N          58.8394   87.5772    8.3457 N.ar    1  UNL1       -0.1076
     18 C          60.2214   87.5879    8.9290 C.ar    1  UNL1        0.1901
     19 C          60.7501   88.5764    9.9256 C.ar    1  UNL1        0.0668
     20 C          61.9985   89.3948    9.7786 C.ar    1  UNL1        0.0101
     21 C          62.1432   90.2442   11.0065 C.ar    1  UNL1        0.0076
     22 C          60.9841   89.9507   11.9123 C.ar    1  UNL1        0.0355
     23 S          60.1232   88.9199   11.2443 S.2     1  UNL1       -0.0833
@<TRIPOS>BOND
     1     7     8    2
     2     8     9   am
     3     9    10    1
     4     8     1    1
     5     1     2   ar
     6     2     3   ar
     7     3     4   ar
     8     4    13    1
     9    13    14    1
    10    14    15   ar
    11    15    16   ar
    12    16    17   ar
    13    17    18   ar
    14    18    19    1
    15    19    20   ar
    16    20    21   ar
    17    21    22   ar
    18    22    23   ar
    19     4     5   ar
    20     5     6   ar
    21     6     1   ar
    22    18    14   ar
    23    23    19   ar
    24     9    11    1
    25    10    12    1
@<TRIPOS>MOLECULE
*****
 23 25 0 0 0
SMALL
GASTEIGER

@<TRIPOS>ATOM
      1 C          63.6695   87.2189   15.8968 C.ar    1  UNL1        0.0553
      2 C          64.3996   87.7434   14.6961 C.ar    1  UNL1        0.0043
      3 C          64.5578   89.2223   14.5013 C.ar    1  UNL1       -0.0022
      4 C          63.9857   90.1766   15.5072 C.ar    1  UNL1        0.0022
      5 C          63.2556   89.6521   16.7079 C.ar    1  UNL1       -0.0022
      6 C          63.0974   88.1733   16.9027 C.ar    1  UNL1        0.0043
      7 O          62.3497   85.2069   16.8766 O.2     1  UNL1       -0.2681
      8 C          63.5113   85.7400   16.0916 C.2     1  UNL1        0.2677
      9 N          64.5148   84.7943   15.5013 N.am    1  UNL1       -0.1934
     10 O          64.3567   83.3154   15.6961 O.3     1  UNL1       -0.2949
     11 H          65.2773   85.1441   14.9861 H       1  UNL1        0.1825
     12 H          63.5604   83.1419   16.2222 H       1  UNL1        0.2414
     13 C          64.1439   91.6555   15.3125 C.3     1  UNL1        0.1573
     14 N          65.5093   92.2752   15.3507 N.ar    1  UNL1       -0.2084
     15 N          66.3560   92.4682   16.5738 N.ar    1  UNL1       -0.0426
     16 N          67.6378   93.1231   16.1517 N.ar    1  UNL1       -0.0226
     17 N          67.5833   93.3349   14.6677 N.ar    1  UNL1       -0.1076
     18 C          66.2678   92.8109   14.1727 C.ar    1  UNL1        0.1901
     19 C          65.7940   92.8208   12.7495 C.ar    1  UNL1        0.0668
     20 C          64.8720   91.8188   12.1202 C.ar    1  UNL1        0.0101
     21 C          64.6672   92.2131   10.6875 C.ar    1  UNL1        0.0076
     22 C          65.4627   93.4589   10.4314 C.ar    1  UNL1        0.0355
     23 S          66.1591   93.8343   11.7058 S.2     1  UNL1       -0.0833
@<TRIPOS>BOND
     1     7     8    2
     2     8     9   am
     3     9    10    1
     4     8     1    1
     5     1     2   ar
     6     2     3   ar
     7     3     4   ar
     8     4    13    1
     9    13    14    1
    10    14    15   ar
    11    15    16   ar
    12    16    17   ar
    13    17    18   ar
    14    18    19    1
    15    19    20   ar
    16    20    21   ar
    17    21    22   ar
    18    22    23   ar
    19     4     5   ar
    20     5     6   ar
    21     6     1   ar
    22    18    14   ar
    23    23    19   ar
    24     9    11    1
    25    10    12    1
@<TRIPOS>MOLECULE
*****
 23 25 0 0 0
SMALL
GASTEIGER

@<TRIPOS>ATOM
      1 C          60.6928   86.9723    9.0147 C.ar    1  UNL1        0.0553
      2 C          61.7532   86.0977    8.4144 C.ar    1  UNL1        0.0043
      3 C          62.6583   85.2981    9.3041 C.ar    1  UNL1       -0.0022
      4 C          62.5029   85.3731   10.7941 C.ar    1  UNL1        0.0022
      5 C          61.4424   86.2477   11.3944 C.ar    1  UNL1       -0.0022
      6 C          60.5374   87.0473   10.5047 C.ar    1  UNL1        0.0043
      7 O          58.5484   87.1454    7.5582 O.2     1  UNL1       -0.2681
      8 C          59.7878   87.7720    8.1250 C.2     1  UNL1        0.2677
      9 N          60.1221   89.1981    7.8022 N.am    1  UNL1       -0.1934
     10 O          59.2171   89.9977    6.9125 O.3     1  UNL1       -0.2949
     11 H          60.9356   89.6093    8.1742 H       1  UNL1        0.1825
     12 H          58.4680   89.4475    6.6348 H       1  UNL1        0.2414
     13 C          63.4079   84.5735   11.6838 C.3     1  UNL1        0.1573
     14 N          63.3999   84.8063   13.1655 N.ar    1  UNL1       -0.2084
     15 N          63.7255   86.0970   13.8571 N.ar    1  UNL1       -0.0426
     16 N          63.5918   85.8776   15.3349 N.ar    1  UNL1       -0.0226
     17 N          63.1836   84.4513   15.5568 N.ar    1  UNL1       -0.1076
     18 C          63.0650   83.7892   14.2160 C.ar    1  UNL1        0.1901
     19 C          62.6792   82.3609   13.9691 C.ar    1  UNL1        0.0668
     20 C          61.3462   81.7428   14.2709 C.ar    1  UNL1        0.0101
     21 C          61.4019   80.2997   13.8654 C.ar    1  UNL1        0.0076
     22 C          62.7694   80.0260   13.3130 C.ar    1  UNL1        0.0355
     23 S          63.5588   81.2998   13.3771 S.2     1  UNL1       -0.0833
@<TRIPOS>BOND
     1     7     8    2
     2     8     9   am
     3     9    10    1
     4     8     1    1
     5     1     2   ar
     6     2     3   ar
     7     3     4   ar
     8     4    13    1
     9    13    14    1
    10    14    15   ar
    11    15    16   ar
    12    16    17   ar
    13    17    18   ar
    14    18    19    1
    15    19    20   ar
    16    20    21   ar
    17    21    22   ar
    18    22    23   ar
    19     4     5   ar
    20     5     6   ar
    21     6     1   ar
    22    18    14   ar
    23    23    19   ar
    24     9    11    1
    25    10    12    1
@<TRIPOS>MOLECULE
*****
 23 25 0 0 0
SMALL
GASTEIGER

@<TRIPOS>ATOM
      1 C          63.4064   84.5506   13.5036 C.ar    1  UNL1        0.0553
      2 C          64.1346   85.3198   14.5657 C.ar    1  UNL1        0.0043
      3 C          64.2396   86.8131   14.4714 C.ar    1  UNL1       -0.0022
      4 C          63.6163   87.5373   13.3151 C.ar    1  UNL1        0.0022
      5 C          62.8881   86.7681   12.2531 C.ar    1  UNL1       -0.0022
      6 C          62.7832   85.2747   12.3473 C.ar    1  UNL1        0.0043
      7 O          63.9405   82.1930   12.5516 O.2     1  UNL1       -0.2681
      8 C          63.3015   83.0572   13.5978 C.2     1  UNL1        0.2677
      9 N          62.5575   82.4281   14.7383 N.am    1  UNL1       -0.1934
     10 O          62.4526   80.9348   14.8325 O.3     1  UNL1       -0.2949
     11 H          62.1381   82.9954   15.4250 H       1  UNL1        0.1825
     12 H          62.9168   80.5301   14.0831 H       1  UNL1        0.2414
     13 C          63.7213   89.0306   13.2209 C.3     1  UNL1        0.1573
     14 N          63.7061   89.8637   14.4682 N.ar    1  UNL1       -0.2084
     15 N          62.8217   89.6497   15.6608 N.ar    1  UNL1       -0.0426
     16 N          63.1416   90.7109   16.6715 N.ar    1  UNL1       -0.0226
     17 N          64.2238   91.5808   16.1037 N.ar    1  UNL1       -0.1076
     18 C          64.5726   91.0572   14.7419 C.ar    1  UNL1        0.1901
     19 C          65.6064   91.6270   13.8164 C.ar    1  UNL1        0.0668
     20 C          67.0928   91.5617   14.0075 C.ar    1  UNL1        0.0101
     21 C          67.7403   92.2565   12.8466 C.ar    1  UNL1        0.0076
     22 C          66.6541   92.7513   11.9380 C.ar    1  UNL1        0.0355
     23 S          65.3353   92.3623   12.5374 S.2     1  UNL1       -0.0833
@<TRIPOS>BOND
     1     7     8    2
     2     8     9   am
     3     9    10    1
     4     8     1    1
     5     1     2   ar
     6     2     3   ar
     7     3     4   ar
     8     4    13    1
     9    13    14    1
    10    14    15   ar
    11    15    16   ar
    12    16    17   ar
    13    17    18   ar
    14    18    19    1
    15    19    20   ar
    16    20    21   ar
    17    21    22   ar
    18    22    23   ar
    19     4     5   ar
    20     5     6   ar
    21     6     1   ar
    22    18    14   ar
    23    23    19   ar
    24     9    11    1
    25    10    12    1
@<TRIPOS>MOLECULE
*****
 23 25 0 0 0
SMALL
GASTEIGER

@<TRIPOS>ATOM
      1 C          62.3411   88.4991   11.0020 C.ar    1  UNL1        0.0553
      2 C          62.3867   89.7385   10.1583 C.ar    1  UNL1        0.0043
      3 C          63.1125   90.9551   10.6513 C.ar    1  UNL1       -0.0022
      4 C          63.7929   90.9323   11.9879 C.ar    1  UNL1        0.0022
      5 C          63.7473   89.6929   12.8316 C.ar    1  UNL1       -0.0022
      6 C          63.0214   88.4763   12.3386 C.ar    1  UNL1        0.0043
      7 O          61.2372   86.1942   11.4694 O.2     1  UNL1       -0.2681
      8 C          61.6152   87.2826   10.5090 C.2     1  UNL1        0.2677
      9 N          61.2674   87.1544    9.0555 N.am    1  UNL1       -0.1934
     10 O          60.5415   85.9378    8.5625 O.3     1  UNL1       -0.2949
     11 H          61.5155   87.8687    8.4251 H       1  UNL1        0.1825
     12 H          60.3744   85.3376    9.3060 H       1  UNL1        0.2414
     13 C          64.5188   92.1489   12.4809 C.3     1  UNL1        0.1573
     14 N          65.8459   92.0046   13.1649 N.ar    1  UNL1       -0.2084
     15 N          66.0631   91.5837   14.5882 N.ar    1  UNL1       -0.0426
     16 N          67.5403   91.5749   14.8487 N.ar    1  UNL1       -0.0226
     17 N          68.2361   91.9902   13.5864 N.ar    1  UNL1       -0.1076
     18 C          67.1888   92.2558   12.5457 C.ar    1  UNL1        0.1901
     19 C          67.4404   92.6954   11.1338 C.ar    1  UNL1        0.0668
     20 C          68.3238   92.0028   10.1389 C.ar    1  UNL1        0.0101
     21 C          68.2822   92.7842    8.8591 C.ar    1  UNL1        0.0076
     22 C          67.3730   93.9597    9.0632 C.ar    1  UNL1        0.0355
     23 S          66.8528   93.9049   10.4691 S.2     1  UNL1       -0.0833
@<TRIPOS>BOND
     1     7     8    2
     2     8     9   am
     3     9    10    1
     4     8     1    1
     5     1     2   ar
     6     2     3   ar
     7     3     4   ar
     8     4    13    1
     9    13    14    1
    10    14    15   ar
    11    15    16   ar
    12    16    17   ar
    13    17    18   ar
    14    18    19    1
    15    19    20   ar
    16    20    21   ar
    17    21    22   ar
    18    22    23   ar
    19     4     5   ar
    20     5     6   ar
    21     6     1   ar
    22    18    14   ar
    23    23    19   ar
    24     9    11    1
    25    10    12    1
@<TRIPOS>MOLECULE
*****
 23 25 0 0 0
SMALL
GASTEIGER

@<TRIPOS>ATOM
      1 C          61.1861   88.5154    9.6592 C.ar    1  UNL1        0.0553
      2 C          61.9827   87.7249   10.6543 C.ar    1  UNL1        0.0043
      3 C          62.8219   88.4334   11.6759 C.ar    1  UNL1       -0.0022
      4 C          62.8645   89.9325   11.7024 C.ar    1  UNL1        0.0022
      5 C          62.0678   90.7231   10.7074 C.ar    1  UNL1       -0.0022
      6 C          61.2286   90.0146    9.6857 C.ar    1  UNL1        0.0043
      7 O          59.3692   88.5801    7.8032 O.2     1  UNL1       -0.2681
      8 C          60.3469   87.8069    8.6376 C.2     1  UNL1        0.2677
      9 N          60.4853   86.3251    8.4504 N.am    1  UNL1       -0.1934
     10 O          59.6461   85.6166    7.4288 O.3     1  UNL1       -0.2949
     11 H          61.1270   85.8176    8.9980 H       1  UNL1        0.1825
     12 H          59.0723   86.2576    6.9807 H       1  UNL1        0.2414
     13 C          63.7037   90.6411   12.7241 C.3     1  UNL1        0.1573
     14 N          63.4417   90.4313   14.1860 N.ar    1  UNL1       -0.2084
     15 N          62.2705   89.7032   14.7763 N.ar    1  UNL1       -0.0426
     16 N          62.4097   89.7347   16.2694 N.ar    1  UNL1       -0.0226
     17 N          63.6670   90.4821   16.6021 N.ar    1  UNL1       -0.1076
     18 C          64.3048   90.9127   15.3144 C.ar    1  UNL1        0.1901
     19 C          65.5815   91.6884   15.1790 C.ar    1  UNL1        0.0668
     20 C          66.1066   92.6994   16.1547 C.ar    1  UNL1        0.0101
     21 C          67.4068   93.2251   15.6228 C.ar    1  UNL1        0.0076
     22 C          67.6853   92.5389   14.3183 C.ar    1  UNL1        0.0355
     23 S          66.5572   91.5892   14.0440 S.2     1  UNL1       -0.0833
@<TRIPOS>BOND
     1     7     8    2
     2     8     9   am
     3     9    10    1
     4     8     1    1
     5     1     2   ar
     6     2     3   ar
     7     3     4   ar
     8     4    13    1
     9    13    14    1
    10    14    15   ar
    11    15    16   ar
    12    16    17   ar
    13    17    18   ar
    14    18    19    1
    15    19    20   ar
    16    20    21   ar
    17    21    22   ar
    18    22    23   ar
    19     4     5   ar
    20     5     6   ar
    21     6     1   ar
    22    18    14   ar
    23    23    19   ar
    24     9    11    1
    25    10    12    1
@<TRIPOS>MOLECULE
*****
 23 25 0 0 0
SMALL
GASTEIGER

@<TRIPOS>ATOM
      1 C          61.3663   89.7820   11.5499 C.ar    1  UNL1        0.0553
      2 C          62.3500   89.8657   12.6792 C.ar    1  UNL1        0.0043
      3 C          63.6227   90.6412   12.5094 C.ar    1  UNL1       -0.0022
      4 C          63.9116   91.3331   11.2102 C.ar    1  UNL1        0.0022
      5 C          62.9279   91.2494   10.0810 C.ar    1  UNL1       -0.0022
      6 C          61.6553   90.4738   10.2508 C.ar    1  UNL1        0.0043
      7 O          59.7247   87.9439   10.7274 O.2     1  UNL1       -0.2681
      8 C          60.0937   89.0064   11.7198 C.2     1  UNL1        0.2677
      9 N          59.1899   89.2933   12.8820 N.am    1  UNL1       -0.1934
     10 O          57.9173   88.5178   13.0518 O.3     1  UNL1       -0.2949
     11 H          59.4320   89.9907   13.5334 H       1  UNL1        0.1825
     12 H          57.8312   87.8756   12.3300 H       1  UNL1        0.2414
     13 C          65.1843   92.1087   11.0404 C.3     1  UNL1        0.1573
     14 N          65.6717   93.0010   12.1432 N.ar    1  UNL1       -0.2084
     15 N          65.6533   92.6818   13.6088 N.ar    1  UNL1       -0.0426
     16 N          66.2333   93.8527   14.3455 N.ar    1  UNL1       -0.0226
     17 N          66.6101   94.8955   13.3352 N.ar    1  UNL1       -0.1076
     18 C          66.2630   94.3691   11.9741 C.ar    1  UNL1        0.1901
     19 C          66.4707   95.0852   10.6726 C.ar    1  UNL1        0.0668
     20 C          67.3586   94.6350    9.5505 C.ar    1  UNL1        0.0101
     21 C          67.2637   95.6487    8.4490 C.ar    1  UNL1        0.0076
     22 C          66.3170   96.7254    8.8903 C.ar    1  UNL1        0.0355
     23 S          65.8269   96.3771   10.2645 S.2     1  UNL1       -0.0833
@<TRIPOS>BOND
     1     7     8    2
     2     8     9   am
     3     9    10    1
     4     8     1    1
     5     1     2   ar
     6     2     3   ar
     7     3     4   ar
     8     4    13    1
     9    13    14    1
    10    14    15   ar
    11    15    16   ar
    12    16    17   ar
    13    17    18   ar
    14    18    19    1
    15    19    20   ar
    16    20    21   ar
    17    21    22   ar
    18    22    23   ar
    19     4     5   ar
    20     5     6   ar
    21     6     1   ar
    22    18    14   ar
    23    23    19   ar
    24     9    11    1
    25    10    12    1
@<TRIPOS>MOLECULE
*****
 23 25 0 0 0
SMALL
GASTEIGER

@<TRIPOS>ATOM
      1 C          63.7434   85.9594   13.4547 C.ar    1  UNL1        0.0553
      2 C          64.3641   86.5945   14.6635 C.ar    1  UNL1        0.0043
      3 C          64.4108   88.0889   14.7850 C.ar    1  UNL1       -0.0022
      4 C          63.8369   88.9481   13.6977 C.ar    1  UNL1        0.0022
      5 C          63.2161   88.3129   12.4889 C.ar    1  UNL1       -0.0022
      6 C          63.1694   86.8186   12.3674 C.ar    1  UNL1        0.0043
      7 O          62.5502   83.6999   13.9250 O.2     1  UNL1       -0.2681
      8 C          63.6966   84.4650   13.3332 C.2     1  UNL1        0.2677
      9 N          64.7963   83.7358   12.6199 N.am    1  UNL1       -0.1934
     10 O          64.7496   82.2415   12.4984 O.3     1  UNL1       -0.2949
     11 H          65.5488   84.2380   12.2315 H       1  UNL1        0.1825
     12 H          63.9488   81.9067   12.9316 H       1  UNL1        0.2414
     13 C          63.8836   90.4424   13.8193 C.3     1  UNL1        0.1573
     14 N          64.3805   91.2729   12.6733 N.ar    1  UNL1       -0.2084
     15 N          63.7664   91.3470   11.3067 N.ar    1  UNL1       -0.0426
     16 N          64.5851   92.2950   10.4814 N.ar    1  UNL1       -0.0226
     17 N          65.7052   92.8068   11.3379 N.ar    1  UNL1       -0.1076
     18 C          65.5787   92.1751   12.6926 C.ar    1  UNL1        0.1901
     19 C          66.4904   92.4052   13.8613 C.ar    1  UNL1        0.0668
     20 C          67.2000   91.3436   14.6483 C.ar    1  UNL1        0.0101
     21 C          68.0007   92.0195   15.7216 C.ar    1  UNL1        0.0076
     22 C          67.7859   93.4990   15.5978 C.ar    1  UNL1        0.0355
     23 S          66.8525   93.7373   14.4481 S.2     1  UNL1       -0.0833
@<TRIPOS>BOND
     1     7     8    2
     2     8     9   am
     3     9    10    1
     4     8     1    1
     5     1     2   ar
     6     2     3   ar
     7     3     4   ar
     8     4    13    1
     9    13    14    1
    10    14    15   ar
    11    15    16   ar
    12    16    17   ar
    13    17    18   ar
    14    18    19    1
    15    19    20   ar
    16    20    21   ar
    17    21    22   ar
    18    22    23   ar
    19     4     5   ar
    20     5     6   ar
    21     6     1   ar
    22    18    14   ar
    23    23    19   ar
    24     9    11    1
    25    10    12    1
