@<TRIPOS>MOLECULE
*****
 17 18 0 0 0
SMALL
GASTEIGER

@<TRIPOS>ATOM
      1 C          63.7992   83.4151   11.1499 C.ar    1  UNL1        0.1386
      2 C          62.9205   84.2533   12.0304 C.ar    1  UNL1        0.0369
      3 C          62.1131   85.3705   11.4389 C.ar    1  UNL1        0.0031
      4 C          62.1843   85.6495    9.9668 C.ar    1  UNL1        0.0003
      5 C          63.0630   84.8113    9.0863 C.ar    1  UNL1        0.0031
      6 C          63.8704   83.6941    9.6778 C.ar    1  UNL1        0.0369
      7 C          61.3769   86.7667    9.3752 C.ar    1  UNL1        0.0031
      8 C          60.3209   86.4690    8.3524 C.ar    1  UNL1        0.0207
      9 C          59.5135   87.5861    7.7608 C.ar    1  UNL1        0.0989
     10 N          59.7621   89.0011    8.1921 N.ar    1  UNL1       -0.2423
     11 C          60.8180   89.2989    9.2150 C.ar    1  UNL1        0.0989
     12 C          61.6254   88.1817    9.8065 C.ar    1  UNL1        0.0207
     13 O          64.6066   82.2979   11.7415 O.3     1  UNL1       -0.4755
     14 C          64.2085   81.7006   13.0585 C.3     1  UNL1        0.2054
     15 C          62.9396   80.9085   13.1699 C.3     1  UNL1        0.0473
     16 C          60.5267   80.6702   14.1036 C.3     1  UNL1        0.0001
     17 C          61.8706   81.3360   14.1316 C.3     1  UNL1        0.0038
@<TRIPOS>BOND
     1    16    17    1
     2    17    15    1
     3    15    14    1
     4    14    13    1
     5    13     1    1
     6     1     2   ar
     7     2     3   ar
     8     3     4   ar
     9     4     7    1
    10     7     8   ar
    11     8     9   ar
    12     9    10   ar
    13    10    11   ar
    14    11    12   ar
    15     4     5   ar
    16     5     6   ar
    17     6     1   ar
    18    12     7   ar
@<TRIPOS>MOLECULE
*****
 17 18 0 0 0
SMALL
GASTEIGER

@<TRIPOS>ATOM
      1 C          64.0181   91.1050   12.4387 C.ar    1  UNL1        0.1386
      2 C          63.6570   91.5755   11.0610 C.ar    1  UNL1        0.0369
      3 C          62.8751   90.6821   10.1442 C.ar    1  UNL1        0.0031
      4 C          62.4542   89.3182   10.6052 C.ar    1  UNL1        0.0003
      5 C          62.8153   88.8477   11.9829 C.ar    1  UNL1        0.0031
      6 C          63.5972   89.7410   12.8997 C.ar    1  UNL1        0.0369
      7 C          61.6723   88.4248    9.6884 C.ar    1  UNL1        0.0031
      8 C          60.4510   88.9484    8.9927 C.ar    1  UNL1        0.0207
      9 C          59.6691   88.0551    8.0759 C.ar    1  UNL1        0.0989
     10 N          60.1085   86.6381    7.8548 N.ar    1  UNL1       -0.2423
     11 C          61.3299   86.1144    8.5505 C.ar    1  UNL1        0.0989
     12 C          62.1118   87.0078    9.4673 C.ar    1  UNL1        0.0207
     13 O          64.8000   91.9984   13.3555 O.3     1  UNL1       -0.4755
     14 C          66.1362   92.5281   12.9268 C.3     1  UNL1        0.2054
     15 C          67.3910   91.9876   13.5459 C.3     1  UNL1        0.0473
     16 C          67.4115   92.7110   16.0412 C.3     1  UNL1        0.0001
     17 C          67.4145   91.6290   15.0023 C.3     1  UNL1        0.0038
@<TRIPOS>BOND
     1    16    17    1
     2    17    15    1
     3    15    14    1
     4    14    13    1
     5    13     1    1
     6     1     2   ar
     7     2     3   ar
     8     3     4   ar
     9     4     7    1
    10     7     8   ar
    11     8     9   ar
    12     9    10   ar
    13    10    11   ar
    14    11    12   ar
    15     4     5   ar
    16     5     6   ar
    17     6     1   ar
    18    12     7   ar
@<TRIPOS>MOLECULE
*****
 17 18 0 0 0
SMALL
GASTEIGER

@<TRIPOS>ATOM
      1 C          63.9706   91.1047   12.2921 C.ar    1  UNL1        0.1386
      2 C          63.5593   91.5578   10.9226 C.ar    1  UNL1        0.0369
      3 C          62.7704   90.6417   10.0349 C.ar    1  UNL1        0.0031
      4 C          62.3926   89.2723   10.5166 C.ar    1  UNL1        0.0003
      5 C          62.8039   88.8191   11.8860 C.ar    1  UNL1        0.0031
      6 C          63.5928   89.7353   12.7738 C.ar    1  UNL1        0.0369
      7 C          61.6036   88.3561    9.6288 C.ar    1  UNL1        0.0031
      8 C          62.0615   86.9443    9.4116 C.ar    1  UNL1        0.0207
      9 C          61.2726   86.0282    8.5238 C.ar    1  UNL1        0.0989
     10 N          60.0257   86.5237    7.8533 N.ar    1  UNL1       -0.2423
     11 C          59.5678   87.9355    8.0705 C.ar    1  UNL1        0.0989
     12 C          60.3568   88.8516    8.9583 C.ar    1  UNL1        0.0207
     13 O          64.7596   92.0208   13.1798 O.3     1  UNL1       -0.4755
     14 C          65.7833   92.9425   12.5861 C.3     1  UNL1        0.2054
     15 C          66.9549   92.3795   11.8376 C.3     1  UNL1        0.0473
     16 C          68.3427   92.2052    9.6481 C.3     1  UNL1        0.0001
     17 C          67.0980   92.6349   10.3664 C.3     1  UNL1        0.0038
@<TRIPOS>BOND
     1    16    17    1
     2    17    15    1
     3    15    14    1
     4    14    13    1
     5    13     1    1
     6     1     2   ar
     7     2     3   ar
     8     3     4   ar
     9     4     7    1
    10     7     8   ar
    11     8     9   ar
    12     9    10   ar
    13    10    11   ar
    14    11    12   ar
    15     4     5   ar
    16     5     6   ar
    17     6     1   ar
    18    12     7   ar
@<TRIPOS>MOLECULE
*****
 17 18 0 0 0
SMALL
GASTEIGER

@<TRIPOS>ATOM
      1 C          63.6792   90.7606   13.7278 C.ar    1  UNL1        0.1386
      2 C          64.9337   91.3762   14.2729 C.ar    1  UNL1        0.0369
      3 C          65.8484   92.1437   13.3650 C.ar    1  UNL1        0.0031
      4 C          65.5086   92.2956   11.9119 C.ar    1  UNL1        0.0003
      5 C          64.2541   91.6800   11.3668 C.ar    1  UNL1        0.0031
      6 C          63.3394   90.9125   12.2747 C.ar    1  UNL1        0.0369
      7 C          66.4233   93.0631   11.0040 C.ar    1  UNL1        0.0031
      8 C          66.2785   94.5506   10.8765 C.ar    1  UNL1        0.0207
      9 C          67.1931   95.3181    9.9686 C.ar    1  UNL1        0.0989
     10 N          68.2526   94.5981    9.1882 N.ar    1  UNL1       -0.2423
     11 C          68.3974   93.1106    9.3157 C.ar    1  UNL1        0.0989
     12 C          67.4827   92.3431   10.2236 C.ar    1  UNL1        0.0207
     13 O          62.7646   89.9931   14.6357 O.3     1  UNL1       -0.4755
     14 C          63.2146   89.6275   16.0191 C.3     1  UNL1        0.2054
     15 C          63.4331   88.1883   16.3808 C.3     1  UNL1        0.0473
     16 C          62.6461   86.1043   17.7180 C.3     1  UNL1        0.0001
     17 C          62.7182   87.5940   17.5581 C.3     1  UNL1        0.0038
@<TRIPOS>BOND
     1    16    17    1
     2    17    15    1
     3    15    14    1
     4    14    13    1
     5    13     1    1
     6     1     2   ar
     7     2     3   ar
     8     3     4   ar
     9     4     7    1
    10     7     8   ar
    11     8     9   ar
    12     9    10   ar
    13    10    11   ar
    14    11    12   ar
    15     4     5   ar
    16     5     6   ar
    17     6     1   ar
    18    12     7   ar
@<TRIPOS>MOLECULE
*****
 17 18 0 0 0
SMALL
GASTEIGER

@<TRIPOS>ATOM
      1 C          62.1309   89.4350   10.6008 C.ar    1  UNL1        0.1386
      2 C          62.7065   90.7141   10.0693 C.ar    1  UNL1        0.0369
      3 C          63.6712   91.5055   10.9018 C.ar    1  UNL1        0.0031
      4 C          64.0603   91.0177   12.2658 C.ar    1  UNL1        0.0003
      5 C          63.4847   89.7386   12.7974 C.ar    1  UNL1        0.0031
      6 C          62.5200   88.9473   11.9648 C.ar    1  UNL1        0.0369
      7 C          65.0250   91.8091   13.0984 C.ar    1  UNL1        0.0031
      8 C          65.6610   93.0461   12.5368 C.ar    1  UNL1        0.0207
      9 C          66.6257   93.8375   13.3694 C.ar    1  UNL1        0.0989
     10 N          66.9543   93.3919   14.7634 N.ar    1  UNL1       -0.2423
     11 C          66.3183   92.1549   15.3249 C.ar    1  UNL1        0.0989
     12 C          65.3536   91.3635   14.4924 C.ar    1  UNL1        0.0207
     13 O          61.1662   88.6436    9.7683 O.3     1  UNL1       -0.4755
     14 C          60.7464   87.2721   10.2072 C.3     1  UNL1        0.2054
     15 C          61.1855   86.0680    9.4279 C.3     1  UNL1        0.0473
     16 C          62.8946   84.9622    7.8134 C.3     1  UNL1        0.0001
     17 C          62.5485   86.0357    8.8022 C.3     1  UNL1        0.0038
@<TRIPOS>BOND
     1    16    17    1
     2    17    15    1
     3    15    14    1
     4    14    13    1
     5    13     1    1
     6     1     2   ar
     7     2     3   ar
     8     3     4   ar
     9     4     7    1
    10     7     8   ar
    11     8     9   ar
    12     9    10   ar
    13    10    11   ar
    14    11    12   ar
    15     4     5   ar
    16     5     6   ar
    17     6     1   ar
    18    12     7   ar
@<TRIPOS>MOLECULE
*****
 17 18 0 0 0
SMALL
GASTEIGER

@<TRIPOS>ATOM
      1 C          63.5600   83.9530   11.4790 C.ar    1  UNL1        0.1386
      2 C          63.7145   84.0430    9.9897 C.ar    1  UNL1        0.0369
      3 C          62.8538   84.9857    9.2020 C.ar    1  UNL1        0.0031
      4 C          61.8387   85.8386    9.9035 C.ar    1  UNL1        0.0003
      5 C          61.6842   85.7486   11.3928 C.ar    1  UNL1        0.0031
      6 C          62.5448   84.8059   12.1805 C.ar    1  UNL1        0.0369
      7 C          60.9781   86.7813    9.1157 C.ar    1  UNL1        0.0031
      8 C          61.0552   88.2575    9.3701 C.ar    1  UNL1        0.0207
      9 C          60.1946   89.2003    8.5823 C.ar    1  UNL1        0.0989
     10 N          59.2569   88.6668    7.5402 N.ar    1  UNL1       -0.2423
     11 C          59.1798   87.1906    7.2859 C.ar    1  UNL1        0.0989
     12 C          60.0404   86.2478    8.0736 C.ar    1  UNL1        0.0207
     13 O          64.4206   83.0103   12.2668 O.3     1  UNL1       -0.4755
     14 C          64.0245   82.6193   13.6597 C.3     1  UNL1        0.2054
     15 C          64.3033   83.5451   14.8065 C.3     1  UNL1        0.0473
     16 C          64.6462   86.1186   14.9044 C.3     1  UNL1        0.0001
     17 C          65.1764   84.7479   14.6041 C.3     1  UNL1        0.0038
@<TRIPOS>BOND
     1    16    17    1
     2    17    15    1
     3    15    14    1
     4    14    13    1
     5    13     1    1
     6     1     2   ar
     7     2     3   ar
     8     3     4   ar
     9     4     7    1
    10     7     8   ar
    11     8     9   ar
    12     9    10   ar
    13    10    11   ar
    14    11    12   ar
    15     4     5   ar
    16     5     6   ar
    17     6     1   ar
    18    12     7   ar
@<TRIPOS>MOLECULE
*****
 17 18 0 0 0
SMALL
GASTEIGER

@<TRIPOS>ATOM
      1 C          63.6278   84.3007   14.1355 C.ar    1  UNL1        0.1386
      2 C          64.2940   85.1587   15.1699 C.ar    1  UNL1        0.0369
      3 C          64.3956   86.6408   14.9627 C.ar    1  UNL1        0.0031
      4 C          63.8311   87.2650   13.7211 C.ar    1  UNL1        0.0003
      5 C          63.1649   86.4071   12.6867 C.ar    1  UNL1        0.0031
      6 C          63.0633   84.9249   12.8939 C.ar    1  UNL1        0.0369
      7 C          63.9327   88.7472   13.5139 C.ar    1  UNL1        0.0031
      8 C          63.2925   89.3826   12.3155 C.ar    1  UNL1        0.0207
      9 C          63.3942   90.8647   12.1083 C.ar    1  UNL1        0.0989
     10 N          64.1360   91.7114   13.0996 N.ar    1  UNL1       -0.2423
     11 C          64.7762   91.0760   14.2980 C.ar    1  UNL1        0.0989
     12 C          64.6746   89.5939   14.5052 C.ar    1  UNL1        0.0207
     13 O          63.5262   82.8186   14.3427 O.3     1  UNL1       -0.4755
     14 C          62.1803   82.1578   14.3852 C.3     1  UNL1        0.2054
     15 C          61.9727   80.8346   13.7099 C.3     1  UNL1        0.0473
     16 C          62.9821   81.5266   11.4181 C.3     1  UNL1        0.0001
     17 C          62.7568   80.4898   12.4785 C.3     1  UNL1        0.0038
@<TRIPOS>BOND
     1    16    17    1
     2    17    15    1
     3    15    14    1
     4    14    13    1
     5    13     1    1
     6     1     2   ar
     7     2     3   ar
     8     3     4   ar
     9     4     7    1
    10     7     8   ar
    11     8     9   ar
    12     9    10   ar
    13    10    11   ar
    14    11    12   ar
    15     4     5   ar
    16     5     6   ar
    17     6     1   ar
    18    12     7   ar
@<TRIPOS>MOLECULE
*****
 17 18 0 0 0
SMALL
GASTEIGER

@<TRIPOS>ATOM
      1 C          63.7449   84.3316   14.5486 C.ar    1  UNL1        0.1386
      2 C          63.3086   84.8465   13.2090 C.ar    1  UNL1        0.0369
      3 C          63.3865   86.3139   12.9079 C.ar    1  UNL1        0.0031
      4 C          63.9007   87.2664   13.9463 C.ar    1  UNL1        0.0003
      5 C          64.3370   86.7514   15.2858 C.ar    1  UNL1        0.0031
      6 C          64.2591   85.2840   15.5870 C.ar    1  UNL1        0.0369
      7 C          63.9786   88.7337   13.6451 C.ar    1  UNL1        0.0031
      8 C          64.7792   89.6400   14.5326 C.ar    1  UNL1        0.0207
      9 C          64.8571   91.1074   14.2314 C.ar    1  UNL1        0.0989
     10 N          64.1344   91.6685   13.0429 N.ar    1  UNL1       -0.2423
     11 C          63.3338   90.7623   12.1554 C.ar    1  UNL1        0.0989
     12 C          63.2559   89.2949   12.4566 C.ar    1  UNL1        0.0207
     13 O          63.6670   82.8642   14.8497 O.3     1  UNL1       -0.4755
     14 C          62.7062   81.9937   14.0953 C.3     1  UNL1        0.2054
     15 C          63.1995   81.1298   12.9727 C.3     1  UNL1        0.0473
     16 C          64.0003   82.2519   10.7705 C.3     1  UNL1        0.0001
     17 C          62.9419   81.5292   11.5500 C.3     1  UNL1        0.0038
@<TRIPOS>BOND
     1    16    17    1
     2    17    15    1
     3    15    14    1
     4    14    13    1
     5    13     1    1
     6     1     2   ar
     7     2     3   ar
     8     3     4   ar
     9     4     7    1
    10     7     8   ar
    11     8     9   ar
    12     9    10   ar
    13    10    11   ar
    14    11    12   ar
    15     4     5   ar
    16     5     6   ar
    17     6     1   ar
    18    12     7   ar
@<TRIPOS>MOLECULE
*****
 17 18 0 0 0
SMALL
GASTEIGER

@<TRIPOS>ATOM
      1 C          61.6944   88.8253   11.0219 C.ar    1  UNL1        0.1386
      2 C          62.5051   88.8322   12.2839 C.ar    1  UNL1        0.0369
      3 C          63.5243   89.9083   12.5147 C.ar    1  UNL1        0.0031
      4 C          63.7329   90.9774   11.4835 C.ar    1  UNL1        0.0003
      5 C          62.9222   90.9705   10.2215 C.ar    1  UNL1        0.0031
      6 C          61.9029   89.8945    9.9907 C.ar    1  UNL1        0.0369
      7 C          64.7521   92.0535   11.7143 C.ar    1  UNL1        0.0031
      8 C          65.3405   92.2487   13.0802 C.ar    1  UNL1        0.0207
      9 C          66.3597   93.3247   13.3110 C.ar    1  UNL1        0.0989
     10 N          66.7906   94.2055   12.1760 N.ar    1  UNL1       -0.2423
     11 C          66.2023   94.0103   10.8101 C.ar    1  UNL1        0.0989
     12 C          65.1830   92.9343   10.5793 C.ar    1  UNL1        0.0207
     13 O          60.6751   87.7493   10.7911 O.3     1  UNL1       -0.4755
     14 C          60.9517   86.6533    9.8051 C.3     1  UNL1        0.2054
     15 C          61.8895   85.5394   10.1654 C.3     1  UNL1        0.0473
     16 C          62.7613   85.0939    7.7588 C.3     1  UNL1        0.0001
     17 C          63.0080   85.1706    9.2364 C.3     1  UNL1        0.0038
@<TRIPOS>BOND
     1    16    17    1
     2    17    15    1
     3    15    14    1
     4    14    13    1
     5    13     1    1
     6     1     2   ar
     7     2     3   ar
     8     3     4   ar
     9     4     7    1
    10     7     8   ar
    11     8     9   ar
    12     9    10   ar
    13    10    11   ar
    14    11    12   ar
    15     4     5   ar
    16     5     6   ar
    17     6     1   ar
    18    12     7   ar
