@<TRIPOS>MOLECULE
*****
 18 20 0 0 0
SMALL
GASTEIGER

@<TRIPOS>ATOM
      1 C          64.9625   92.3455   11.9705 C.ar    1  UNL1        0.1447
      2 C          65.6920   92.5016   13.2718 C.ar    1  UNL1        0.0749
      3 C          66.6978   93.5092   13.7440 C.ar    1  UNL1        0.0468
      4 C          67.0809   93.1575   15.1509 C.ar    1  UNL1        0.1799
      5 O          66.3118   91.9324   15.5483 O.2     1  UNL1       -0.4471
      6 C          65.4534   91.5271   14.3869 C.ar    1  UNL1        0.1851
      7 C          64.4854   90.3965   14.2007 C.ar    1  UNL1        0.2075
      8 C          63.7559   90.2405   12.8993 C.ar    1  UNL1        0.1883
      9 O          62.7878   89.1099   12.7132 O.2     1  UNL1       -0.4177
     10 C          62.0583   88.9538   11.4118 C.ar    1  UNL1        0.3460
     11 O          61.0902   87.8233   11.2256 O.2     1  UNL1       -0.2445
     12 C          62.2968   89.9283   10.2967 C.ar    1  UNL1        0.0825
     13 C          63.2649   91.0588   10.4829 C.ar    1  UNL1        0.0128
     14 C          63.9944   91.2149   11.7843 C.ar    1  UNL1        0.0721
     15 C          66.4988   93.2963   10.1034 C.3     1  UNL1        0.2525
     16 O          65.2010   93.3200   10.8553 O.3     1  UNL1       -0.4712
     17 O          64.2468   89.4220   15.3158 O.3     1  UNL1       -0.4654
     18 C          63.1834   89.6969   16.3374 C.3     1  UNL1        0.2528
@<TRIPOS>BOND
     1    15    16    1
     2    16     1    1
     3     1     2   ar
     4     2     3   ar
     5     3     4   ar
     6     4     5   ar
     7     5     6   ar
     8     6     7   ar
     9     7    17    1
    10    17    18    1
    11     7     8   ar
    12     8     9   ar
    13     9    10   ar
    14    10    11    2
    15    10    12   ar
    16    12    13   ar
    17    13    14   ar
    18    14     1   ar
    19     6     2   ar
    20    14     8   ar
@<TRIPOS>MOLECULE
*****
 18 20 0 0 0
SMALL
GASTEIGER

@<TRIPOS>ATOM
      1 C          64.3037   91.3613   13.9165 C.ar    1  UNL1        0.1447
      2 C          63.9825   91.3568   12.4513 C.ar    1  UNL1        0.0749
      3 C          62.8428   90.7661   11.6754 C.ar    1  UNL1        0.0468
      4 C          63.0555   91.0837   10.2250 C.ar    1  UNL1        0.1799
      5 O          64.3268   91.8707   10.1044 O.2     1  UNL1       -0.4471
      6 C          64.8997   92.0395   11.4804 C.ar    1  UNL1        0.1851
      7 C          66.1381   92.7267   11.9746 C.ar    1  UNL1        0.2075
      8 C          66.4592   92.7311   13.4398 C.ar    1  UNL1        0.1883
      9 O          67.6976   93.4183   13.9340 O.2     1  UNL1       -0.4177
     10 C          68.0188   93.4228   15.3992 C.ar    1  UNL1        0.3460
     11 O          69.2571   94.1100   15.8935 O.2     1  UNL1       -0.2445
     12 C          67.1016   92.7401   16.3703 C.ar    1  UNL1        0.0825
     13 C          65.8633   92.0530   15.8760 C.ar    1  UNL1        0.0128
     14 C          65.5421   92.0485   14.4107 C.ar    1  UNL1        0.0721
     15 C          63.6361   89.2523   15.2789 C.3     1  UNL1        0.2525
     16 O          63.3865   90.6786   14.8875 O.3     1  UNL1       -0.4712
     17 O          67.0552   93.4093   11.0037 O.3     1  UNL1       -0.4654
     18 C          66.6580   94.7196   10.3910 C.3     1  UNL1        0.2528
@<TRIPOS>BOND
     1    15    16    1
     2    16     1    1
     3     1     2   ar
     4     2     3   ar
     5     3     4   ar
     6     4     5   ar
     7     5     6   ar
     8     6     7   ar
     9     7    17    1
    10    17    18    1
    11     7     8   ar
    12     8     9   ar
    13     9    10   ar
    14    10    11    2
    15    10    12   ar
    16    12    13   ar
    17    13    14   ar
    18    14     1   ar
    19     6     2   ar
    20    14     8   ar
@<TRIPOS>MOLECULE
*****
 18 20 0 0 0
SMALL
GASTEIGER

@<TRIPOS>ATOM
      1 C          62.3926   89.2666   11.3681 C.ar    1  UNL1        0.1447
      2 C          63.1158   88.5467   12.4675 C.ar    1  UNL1        0.0749
      3 C          63.9713   89.0395   13.5967 C.ar    1  UNL1        0.0468
      4 C          64.4286   87.8485   14.3856 C.ar    1  UNL1        0.1799
      5 O          63.8558   86.6196   13.7440 O.2     1  UNL1       -0.4471
      6 C          63.0444   87.0511   12.5585 C.ar    1  UNL1        0.1851
      7 C          62.2497   86.2755   11.5501 C.ar    1  UNL1        0.2075
      8 C          61.5265   86.9954   10.4507 C.ar    1  UNL1        0.1883
      9 O          60.7318   86.2196    9.4423 O.2     1  UNL1       -0.4177
     10 C          60.0086   86.9395    8.3429 C.ar    1  UNL1        0.3460
     11 O          59.2139   86.1639    7.3345 O.2     1  UNL1       -0.2445
     12 C          60.0800   88.4351    8.2518 C.ar    1  UNL1        0.0825
     13 C          60.8746   89.2107    9.2602 C.ar    1  UNL1        0.0128
     14 C          61.5979   88.4908   10.3597 C.ar    1  UNL1        0.0721
     15 C          63.5843   91.4149   10.5228 C.3     1  UNL1        0.2525
     16 O          62.4640   90.7621   11.2770 O.3     1  UNL1       -0.4712
     17 O          62.1783   84.7800   11.6411 O.3     1  UNL1       -0.4654
     18 C          63.3453   83.9453   11.2035 C.3     1  UNL1        0.2528
@<TRIPOS>BOND
     1    15    16    1
     2    16     1    1
     3     1     2   ar
     4     2     3   ar
     5     3     4   ar
     6     4     5   ar
     7     5     6   ar
     8     6     7   ar
     9     7    17    1
    10    17    18    1
    11     7     8   ar
    12     8     9   ar
    13     9    10   ar
    14    10    11    2
    15    10    12   ar
    16    12    13   ar
    17    13    14   ar
    18    14     1   ar
    19     6     2   ar
    20    14     8   ar
@<TRIPOS>MOLECULE
*****
 18 20 0 0 0
SMALL
GASTEIGER

@<TRIPOS>ATOM
      1 C          62.4713   85.6904   11.2087 C.ar    1  UNL1        0.1447
      2 C          62.7864   87.0352   11.7937 C.ar    1  UNL1        0.0749
      3 C          62.5672   88.4283   11.2826 C.ar    1  UNL1        0.0468
      4 C          63.0903   89.3869   12.3109 C.ar    1  UNL1        0.1799
      5 O          63.6327   88.5863   13.4575 O.2     1  UNL1       -0.4471
      6 C          63.4448   87.1328   13.1379 C.ar    1  UNL1        0.1851
      7 C          63.7883   85.8856   13.8971 C.ar    1  UNL1        0.2075
      8 C          63.4733   84.5408   13.3122 C.ar    1  UNL1        0.1883
      9 O          63.8168   83.2935   14.0715 O.2     1  UNL1       -0.4177
     10 C          63.5017   81.9487   13.4866 C.ar    1  UNL1        0.3460
     11 O          63.8452   80.7015   14.2458 O.2     1  UNL1       -0.2445
     12 C          62.8432   81.8510   12.1423 C.ar    1  UNL1        0.0825
     13 C          62.4998   83.0982   11.3831 C.ar    1  UNL1        0.0128
     14 C          62.8148   84.4432   11.9681 C.ar    1  UNL1        0.0721
     15 C          62.6384   85.6910    8.6161 C.3     1  UNL1        0.2525
     16 O          61.8128   85.5927    9.8645 O.3     1  UNL1       -0.4712
     17 O          64.4468   85.9832   15.2413 O.3     1  UNL1       -0.4654
     18 C          63.6202   85.8932   16.4898 C.3     1  UNL1        0.2528
@<TRIPOS>BOND
     1    15    16    1
     2    16     1    1
     3     1     2   ar
     4     2     3   ar
     5     3     4   ar
     6     4     5   ar
     7     5     6   ar
     8     6     7   ar
     9     7    17    1
    10    17    18    1
    11     7     8   ar
    12     8     9   ar
    13     9    10   ar
    14    10    11    2
    15    10    12   ar
    16    12    13   ar
    17    13    14   ar
    18    14     1   ar
    19     6     2   ar
    20    14     8   ar
@<TRIPOS>MOLECULE
*****
 18 20 0 0 0
SMALL
GASTEIGER

@<TRIPOS>ATOM
      1 C          64.5419   91.9940   11.4807 C.ar    1  UNL1        0.1447
      2 C          63.5914   90.8549   11.2594 C.ar    1  UNL1        0.0749
      3 C          62.7979   90.4283   10.0600 C.ar    1  UNL1        0.0468
      4 C          62.0158   89.2040   10.4333 C.ar    1  UNL1        0.1799
      5 O          62.3259   88.8739   11.8633 O.2     1  UNL1       -0.4471
      6 C          63.2996   89.8942   12.3739 C.ar    1  UNL1        0.1851
      7 C          63.9584   90.0727   13.7096 C.ar    1  UNL1        0.2075
      8 C          64.9088   91.2118   13.9309 C.ar    1  UNL1        0.1883
      9 O          65.5676   91.3902   15.2667 O.2     1  UNL1       -0.4177
     10 C          66.5180   92.5293   15.4880 C.ar    1  UNL1        0.3460
     11 O          67.1768   92.7078   16.8237 O.2     1  UNL1       -0.2445
     12 C          66.8098   93.4901   14.3736 C.ar    1  UNL1        0.0825
     13 C          66.1511   93.3116   13.0378 C.ar    1  UNL1        0.0128
     14 C          65.2006   92.1724   12.8165 C.ar    1  UNL1        0.0721
     15 C          66.2537   93.2595    9.9914 C.3     1  UNL1        0.2525
     16 O          64.8337   92.9547   10.3662 O.3     1  UNL1       -0.4712
     17 O          63.6666   89.1120   14.8241 O.3     1  UNL1       -0.4654
     18 C          64.3022   87.7534   14.8288 C.3     1  UNL1        0.2528
@<TRIPOS>BOND
     1    15    16    1
     2    16     1    1
     3     1     2   ar
     4     2     3   ar
     5     3     4   ar
     6     4     5   ar
     7     5     6   ar
     8     6     7   ar
     9     7    17    1
    10    17    18    1
    11     7     8   ar
    12     8     9   ar
    13     9    10   ar
    14    10    11    2
    15    10    12   ar
    16    12    13   ar
    17    13    14   ar
    18    14     1   ar
    19     6     2   ar
    20    14     8   ar
@<TRIPOS>MOLECULE
*****
 18 20 0 0 0
SMALL
GASTEIGER

@<TRIPOS>ATOM
      1 C          64.6649   90.5708   14.0948 C.ar    1  UNL1        0.1447
      2 C          65.6673   91.6818   14.1988 C.ar    1  UNL1        0.0749
      3 C          66.5948   92.0967   15.3022 C.ar    1  UNL1        0.0468
      4 C          67.3701   93.2914   14.8313 C.ar    1  UNL1        0.1799
      5 O          66.9218   93.6148   13.4369 O.2     1  UNL1       -0.4471
      6 C          65.8694   92.6200   13.0459 C.ar    1  UNL1        0.1851
      7 C          65.0690   92.4472   11.7892 C.ar    1  UNL1        0.2075
      8 C          64.0665   91.3362   11.6852 C.ar    1  UNL1        0.1883
      9 O          63.2661   91.1635   10.4283 O.2     1  UNL1       -0.4177
     10 C          62.2637   90.0526   10.3244 C.ar    1  UNL1        0.3460
     11 O          61.4633   89.8798    9.0676 O.2     1  UNL1       -0.2445
     12 C          62.0615   89.1143   11.4772 C.ar    1  UNL1        0.0825
     13 C          62.8619   89.2871   12.7339 C.ar    1  UNL1        0.0128
     14 C          63.8645   90.3981   12.8379 C.ar    1  UNL1        0.0721
     15 C          63.3838   89.9026   16.2540 C.3     1  UNL1        0.2525
     16 O          64.4627   89.6326   15.2476 O.3     1  UNL1       -0.4712
     17 O          65.2710   93.3854   10.6364 O.3     1  UNL1       -0.4654
     18 C          66.6114   93.4761    9.9692 C.3     1  UNL1        0.2528
@<TRIPOS>BOND
     1    15    16    1
     2    16     1    1
     3     1     2   ar
     4     2     3   ar
     5     3     4   ar
     6     4     5   ar
     7     5     6   ar
     8     6     7   ar
     9     7    17    1
    10    17    18    1
    11     7     8   ar
    12     8     9   ar
    13     9    10   ar
    14    10    11    2
    15    10    12   ar
    16    12    13   ar
    17    13    14   ar
    18    14     1   ar
    19     6     2   ar
    20    14     8   ar
@<TRIPOS>MOLECULE
*****
 18 20 0 0 0
SMALL
GASTEIGER

@<TRIPOS>ATOM
      1 C          62.4969   85.8270   11.1463 C.ar    1  UNL1        0.1447
      2 C          62.8626   84.5722   11.8824 C.ar    1  UNL1        0.0749
      3 C          62.7003   83.1219   11.5359 C.ar    1  UNL1        0.0468
      4 C          63.2572   82.3099   12.6675 C.ar    1  UNL1        0.1799
      5 O          63.7638   83.2585   13.7133 O.2     1  UNL1       -0.4471
      6 C          63.5199   84.6567   13.2281 C.ar    1  UNL1        0.1851
      7 C          63.8114   85.9959   13.8377 C.ar    1  UNL1        0.2075
      8 C          63.4456   87.2506   13.1016 C.ar    1  UNL1        0.1883
      9 O          63.7372   88.5898   13.7113 O.2     1  UNL1       -0.4177
     10 C          63.3714   89.8445   12.9752 C.ar    1  UNL1        0.3460
     11 O          63.6629   91.1837   13.5848 O.2     1  UNL1       -0.2445
     12 C          62.7141   89.7602   11.6295 C.ar    1  UNL1        0.0825
     13 C          62.4226   88.4210   11.0199 C.ar    1  UNL1        0.0128
     14 C          62.7884   87.1662   11.7560 C.ar    1  UNL1        0.0721
     15 C          62.6766   85.5883    8.5655 C.3     1  UNL1        0.2525
     16 O          61.8396   85.7426    9.8006 O.3     1  UNL1       -0.4712
     17 O          64.4687   86.0803   15.1833 O.3     1  UNL1       -0.4654
     18 C          63.6596   85.8657   16.4280 C.3     1  UNL1        0.2528
@<TRIPOS>BOND
     1    15    16    1
     2    16     1    1
     3     1     2   ar
     4     2     3   ar
     5     3     4   ar
     6     4     5   ar
     7     5     6   ar
     8     6     7   ar
     9     7    17    1
    10    17    18    1
    11     7     8   ar
    12     8     9   ar
    13     9    10   ar
    14    10    11    2
    15    10    12   ar
    16    12    13   ar
    17    13    14   ar
    18    14     1   ar
    19     6     2   ar
    20    14     8   ar
@<TRIPOS>MOLECULE
*****
 18 20 0 0 0
SMALL
GASTEIGER

@<TRIPOS>ATOM
      1 C          62.1484   86.7701   10.6388 C.ar    1  UNL1        0.1447
      2 C          61.0800   86.9783    9.6067 C.ar    1  UNL1        0.0749
      3 C          60.5446   86.0899    8.5232 C.ar    1  UNL1        0.0468
      4 C          59.4704   86.8425    7.7953 C.ar    1  UNL1        0.1799
      5 O          59.3420   88.1960    8.4290 O.2     1  UNL1       -0.4471
      6 C          60.3368   88.2799    9.5485 C.ar    1  UNL1        0.1851
      7 C          60.6620   89.3734   10.5224 C.ar    1  UNL1        0.2075
      8 C          61.7303   89.1652   11.5545 C.ar    1  UNL1        0.1883
      9 O          62.0555   90.2588   12.5285 O.2     1  UNL1       -0.4177
     10 C          63.1238   90.0507   13.5606 C.ar    1  UNL1        0.3460
     11 O          63.4490   91.1441   14.5345 O.2     1  UNL1       -0.2445
     12 C          63.8671   88.7490   13.6189 C.ar    1  UNL1        0.0825
     13 C          63.5419   87.6555   12.6449 C.ar    1  UNL1        0.0128
     14 C          62.4735   87.8637   11.6128 C.ar    1  UNL1        0.0721
     15 C          62.4440   84.3908   11.6396 C.3     1  UNL1        0.2525
     16 O          62.8916   85.4685   10.6971 O.3     1  UNL1       -0.4712
     17 O          59.9188   90.6751   10.4642 O.3     1  UNL1       -0.4654
     18 C          58.9274   91.0212   11.5354 C.3     1  UNL1        0.2528
@<TRIPOS>BOND
     1    15    16    1
     2    16     1    1
     3     1     2   ar
     4     2     3   ar
     5     3     4   ar
     6     4     5   ar
     7     5     6   ar
     8     6     7   ar
     9     7    17    1
    10    17    18    1
    11     7     8   ar
    12     8     9   ar
    13     9    10   ar
    14    10    11    2
    15    10    12   ar
    16    12    13   ar
    17    13    14   ar
    18    14     1   ar
    19     6     2   ar
    20    14     8   ar
@<TRIPOS>MOLECULE
*****
 18 20 0 0 0
SMALL
GASTEIGER

@<TRIPOS>ATOM
      1 C          62.2119   86.8698   10.9060 C.ar    1  UNL1        0.1447
      2 C          62.4445   88.3490   10.9942 C.ar    1  UNL1        0.0749
      3 C          62.0849   89.4781   10.0746 C.ar    1  UNL1        0.0468
      4 C          62.5794   90.7531   10.6907 C.ar    1  UNL1        0.1799
      5 O          63.2447   90.4121   11.9911 O.2     1  UNL1       -0.4471
      6 C          63.1614   88.9262   12.1787 C.ar    1  UNL1        0.1851
      7 C          63.6456   88.0242   13.2750 C.ar    1  UNL1        0.2075
      8 C          63.4129   86.5449   13.1868 C.ar    1  UNL1        0.1883
      9 O          63.8972   85.6429   14.2832 O.2     1  UNL1       -0.4177
     10 C          63.6646   84.1637   14.1950 C.ar    1  UNL1        0.3460
     11 O          64.1488   83.2617   15.2913 O.2     1  UNL1       -0.2445
     12 C          62.9477   83.5864   13.0105 C.ar    1  UNL1        0.0825
     13 C          62.4635   84.4884   11.9142 C.ar    1  UNL1        0.0128
     14 C          62.6961   85.9678   12.0024 C.ar    1  UNL1        0.0721
     15 C          62.2729   85.8414    8.5209 C.3     1  UNL1        0.2525
     16 O          61.4951   86.2925    9.7215 O.3     1  UNL1       -0.4712
     17 O          64.3624   88.6013   14.4595 O.3     1  UNL1       -0.4654
     18 C          63.6379   89.5162   15.4019 C.3     1  UNL1        0.2528
@<TRIPOS>BOND
     1    15    16    1
     2    16     1    1
     3     1     2   ar
     4     2     3   ar
     5     3     4   ar
     6     4     5   ar
     7     5     6   ar
     8     6     7   ar
     9     7    17    1
    10    17    18    1
    11     7     8   ar
    12     8     9   ar
    13     9    10   ar
    14    10    11    2
    15    10    12   ar
    16    12    13   ar
    17    13    14   ar
    18    14     1   ar
    19     6     2   ar
    20    14     8   ar
