@<TRIPOS>MOLECULE
*****
 31 34 0 0 0
SMALL
GASTEIGER

@<TRIPOS>ATOM
      1 C          64.0029   90.2742   15.7710 C.2     1  UNL1        0.2525
      2 O          63.3626   90.8612   16.9938 O.2     1  UNL1       -0.2698
      3 N          63.7775   88.8321   15.4252 N.am    1  UNL1       -0.2660
      4 C          64.3484   88.1097   14.2411 C.3     1  UNL1        0.1236
      5 C          63.8653   86.6904   14.2869 C.ar    1  UNL1        0.0338
      6 C          63.9196   85.3667   13.5834 C.ar    1  UNL1        0.0991
      7 N          63.0837   84.3938   14.3611 N.ar    1  UNL1       -0.2265
      8 N          62.5127   85.1163   15.5453 N.ar    1  UNL1       -0.1679
      9 C          62.9958   86.5356   15.4994 C.ar    1  UNL1        0.0981
     10 C          62.9416   87.8593   16.2029 C.3     1  UNL1        0.1414
     11 C          62.8582   82.9518   14.0154 C.ar    1  UNL1        0.1102
     12 C          61.6682   82.2251   14.5683 C.ar    1  UNL1        0.0214
     13 C          61.4427   80.7830   14.2226 C.ar    1  UNL1        0.0017
     14 C          62.4073   80.0676   13.3239 C.ar    1  UNL1        0.0024
     15 C          63.5974   80.7943   12.7709 C.ar    1  UNL1        0.0312
     16 C          63.8228   82.2363   13.1166 C.ar    1  UNL1        0.1577
     17 F          65.0129   82.9629   12.5637 F       1  UNL1       -0.2026
     18 C          64.4279   91.4602   13.4987 C.ar    1  UNL1        0.1427
     19 C          65.2937   92.3153   12.6216 C.ar    1  UNL1        0.0384
     20 C          66.6001   92.8396   13.1396 C.ar    1  UNL1        0.0215
     21 C          67.0409   92.5088   14.5347 C.ar    1  UNL1        0.1061
     22 C          66.1750   91.6536   15.4118 C.ar    1  UNL1        0.0259
     23 C          64.8686   91.1293   14.8938 C.ar    1  UNL1        0.0887
     24 S          68.3473   93.0331   15.0527 S.O2    1  UNL1        0.0105
     25 C          69.6537   93.5574   15.5707 C.3     1  UNL1        0.1816
     26 O          69.0614   92.3930   13.8993 O.2     1  UNL1       -0.1686
     27 O          67.6330   93.6731   16.2061 O.2     1  UNL1       -0.1686
     28 O          63.1215   90.9359   12.9807 O.3     1  UNL1       -0.4790
     29 C          62.6984   88.9432   11.3682 C.3     1  UNL1        0.0472
     30 C          63.0325   90.3891   11.5868 C.3     1  UNL1        0.1661
     31 C          63.2776   91.2882   10.4114 C.3     1  UNL1        0.0472
@<TRIPOS>BOND
     1    29    30    1
     2    30    31    1
     3    30    28    1
     4    28    18    1
     5    18    19   ar
     6    19    20   ar
     7    20    21   ar
     8    21    24    1
     9    24    25    1
    10    24    26    2
    11    24    27    2
    12    21    22   ar
    13    22    23   ar
    14    23     1    1
    15     1     2    2
    16     1     3   am
    17     3     4    1
    18     4     5    1
    19     5     6   ar
    20     6     7   ar
    21     7    11    1
    22    11    12   ar
    23    12    13   ar
    24    13    14   ar
    25    14    15   ar
    26    15    16   ar
    27    16    17    1
    28     7     8   ar
    29     8     9   ar
    30     9    10    1
    31    23    18   ar
    32    10     3    1
    33     9     5   ar
    34    16    11   ar
@<TRIPOS>MOLECULE
*****
 31 34 0 0 0
SMALL
GASTEIGER

@<TRIPOS>ATOM
      1 C          62.6244   90.2428   11.1713 C.2     1  UNL1        0.2525
      2 O          61.5784   90.8597   10.2909 O.2     1  UNL1       -0.2698
      3 N          62.6016   88.7678   11.4427 N.am    1  UNL1       -0.2660
      4 C          63.5761   88.0135   12.2979 C.3     1  UNL1        0.1236
      5 C          63.1770   86.5676   12.2903 C.ar    1  UNL1        0.0338
      6 C          63.5326   85.2078   12.8142 C.ar    1  UNL1        0.0991
      7 N          62.5313   84.2280   12.2780 N.ar    1  UNL1       -0.2265
      8 N          61.5568   84.9823   11.4227 N.ar    1  UNL1       -0.1679
      9 C          61.9559   86.4282   11.4304 C.ar    1  UNL1        0.0981
     10 C          61.6003   87.7881   10.9065 C.3     1  UNL1        0.1414
     11 C          62.5084   82.7530   12.5494 C.ar    1  UNL1        0.1102
     12 C          62.8609   81.7843   11.4597 C.ar    1  UNL1        0.0214
     13 C          62.8380   80.3092   11.7310 C.ar    1  UNL1        0.0017
     14 C          62.4627   79.8028   13.0922 C.ar    1  UNL1        0.0024
     15 C          62.1102   80.7715   14.1819 C.ar    1  UNL1        0.0312
     16 C          62.1331   82.2465   13.9106 C.ar    1  UNL1        0.1577
     17 F          61.7806   83.2152   15.0002 F       1  UNL1       -0.2026
     18 C          63.8587   91.1487   13.2704 C.ar    1  UNL1        0.1427
     19 C          64.9277   92.0069   13.8793 C.ar    1  UNL1        0.0384
     20 C          65.8313   92.8175   12.9982 C.ar    1  UNL1        0.0215
     21 C          65.6660   92.7699   11.5081 C.ar    1  UNL1        0.1061
     22 C          64.5970   91.9116   10.8992 C.ar    1  UNL1        0.0259
     23 C          63.6934   91.1010   11.7803 C.ar    1  UNL1        0.0887
     24 S          66.5696   93.5805   10.6270 S.O2    1  UNL1        0.0105
     25 C          67.4732   94.3911    9.7459 C.3     1  UNL1        0.1816
     26 O          67.6775   92.5960   10.8575 O.2     1  UNL1       -0.1686
     27 O          65.4615   94.5651   10.3965 O.2     1  UNL1       -0.1686
     28 O          62.9551   90.3381   14.1515 O.3     1  UNL1       -0.4790
     29 C          63.5432   90.8067   16.6384 C.3     1  UNL1        0.0472
     30 C          63.4442   89.8537   15.4843 C.3     1  UNL1        0.1661
     31 C          63.8342   88.4164   15.6629 C.3     1  UNL1        0.0472
@<TRIPOS>BOND
     1    29    30    1
     2    30    31    1
     3    30    28    1
     4    28    18    1
     5    18    19   ar
     6    19    20   ar
     7    20    21   ar
     8    21    24    1
     9    24    25    1
    10    24    26    2
    11    24    27    2
    12    21    22   ar
    13    22    23   ar
    14    23     1    1
    15     1     2    2
    16     1     3   am
    17     3     4    1
    18     4     5    1
    19     5     6   ar
    20     6     7   ar
    21     7    11    1
    22    11    12   ar
    23    12    13   ar
    24    13    14   ar
    25    14    15   ar
    26    15    16   ar
    27    16    17    1
    28     7     8   ar
    29     8     9   ar
    30     9    10    1
    31    23    18   ar
    32    10     3    1
    33     9     5   ar
    34    16    11   ar
@<TRIPOS>MOLECULE
*****
 31 34 0 0 0
SMALL
GASTEIGER

@<TRIPOS>ATOM
      1 C          63.7558   88.6285   15.4439 C.2     1  UNL1        0.2525
      2 O          63.4025   88.8250   16.8884 O.2     1  UNL1       -0.2698
      3 N          63.6096   87.2753   14.8135 N.am    1  UNL1       -0.2660
      4 C          63.9220   86.9284   13.3880 C.3     1  UNL1        0.1236
      5 C          63.6308   85.4701   13.1913 C.ar    1  UNL1        0.0338
      6 C          63.6438   84.3545   12.1888 C.ar    1  UNL1        0.0991
      7 N          63.1596   83.1105   12.8731 N.ar    1  UNL1       -0.2265
      8 N          62.8472   83.4575   14.2986 N.ar    1  UNL1       -0.1679
      9 C          63.1384   84.9158   14.4953 C.ar    1  UNL1        0.0981
     10 C          63.1253   86.0314   15.4978 C.3     1  UNL1        0.1414
     11 C          63.0133   81.7574   12.2426 C.ar    1  UNL1        0.1102
     12 C          63.2839   81.5792   10.7781 C.ar    1  UNL1        0.0214
     13 C          63.1377   80.2260   10.1475 C.ar    1  UNL1        0.0017
     14 C          62.7209   79.0510   10.9817 C.ar    1  UNL1        0.0024
     15 C          62.4504   79.2293   12.4463 C.ar    1  UNL1        0.0312
     16 C          62.5966   80.5824   13.0768 C.ar    1  UNL1        0.1577
     17 F          62.3260   80.7607   14.5413 F       1  UNL1       -0.2026
     18 C          63.4371   90.3060   13.4857 C.ar    1  UNL1        0.1427
     19 C          63.9367   91.4626   12.6718 C.ar    1  UNL1        0.0384
     20 C          65.2544   92.0985   13.0020 C.ar    1  UNL1        0.0215
     21 C          66.0727   91.5777   14.1462 C.ar    1  UNL1        0.1061
     22 C          65.5731   90.4210   14.9602 C.ar    1  UNL1        0.0259
     23 C          64.2553   89.7851   14.6300 C.ar    1  UNL1        0.0887
     24 S          67.3905   92.2136   14.4765 S.O2    1  UNL1        0.0105
     25 C          68.7083   92.8495   14.8067 C.3     1  UNL1        0.1816
     26 O          67.8372   92.0251   13.0570 O.2     1  UNL1       -0.1686
     27 O          66.9438   92.4021   15.8960 O.2     1  UNL1       -0.1686
     28 O          62.1193   89.6701   13.1555 O.3     1  UNL1       -0.4790
     29 C          60.4147   90.3919   11.3324 C.3     1  UNL1        0.0472
     30 C          61.6418   89.6285   11.7341 C.3     1  UNL1        0.1661
     31 C          62.3915   88.8234   10.7144 C.3     1  UNL1        0.0472
@<TRIPOS>BOND
     1    29    30    1
     2    30    31    1
     3    30    28    1
     4    28    18    1
     5    18    19   ar
     6    19    20   ar
     7    20    21   ar
     8    21    24    1
     9    24    25    1
    10    24    26    2
    11    24    27    2
    12    21    22   ar
    13    22    23   ar
    14    23     1    1
    15     1     2    2
    16     1     3   am
    17     3     4    1
    18     4     5    1
    19     5     6   ar
    20     6     7   ar
    21     7    11    1
    22    11    12   ar
    23    12    13   ar
    24    13    14   ar
    25    14    15   ar
    26    15    16   ar
    27    16    17    1
    28     7     8   ar
    29     8     9   ar
    30     9    10    1
    31    23    18   ar
    32    10     3    1
    33     9     5   ar
    34    16    11   ar
@<TRIPOS>MOLECULE
*****
 31 34 0 0 0
SMALL
GASTEIGER

@<TRIPOS>ATOM
      1 C          63.4781   90.7556   11.7149 C.2     1  UNL1        0.2525
      2 O          62.7190   91.4410   10.6177 O.2     1  UNL1       -0.2698
      3 N          63.2933   89.2857   11.9498 N.am    1  UNL1       -0.2660
      4 C          63.9801   88.4680   13.0032 C.3     1  UNL1        0.1236
      5 C          63.5006   87.0524   12.8770 C.ar    1  UNL1        0.0338
      6 C          63.6287   85.6721   13.4500 C.ar    1  UNL1        0.0991
      7 N          62.7246   84.7617   12.6728 N.ar    1  UNL1       -0.2265
      8 N          62.0378   85.5795   11.6194 N.ar    1  UNL1       -0.1679
      9 C          62.5174   86.9951   11.7456 C.ar    1  UNL1        0.0981
     10 C          62.3893   88.3754   11.1726 C.3     1  UNL1        0.1414
     11 C          62.5399   83.2919   12.9077 C.ar    1  UNL1        0.1102
     12 C          61.9792   82.8052   14.2111 C.ar    1  UNL1        0.0214
     13 C          61.7944   81.3353   14.4460 C.ar    1  UNL1        0.0017
     14 C          62.1703   80.3520   13.3775 C.ar    1  UNL1        0.0024
     15 C          62.7309   80.8386   12.0740 C.ar    1  UNL1        0.0312
     16 C          62.9157   82.3084   11.8391 C.ar    1  UNL1        0.1577
     17 F          63.4763   82.7951   10.5357 F       1  UNL1       -0.2026
     18 C          65.5470   92.3094   11.9508 C.ar    1  UNL1        0.1427
     19 C          66.4908   93.0939   12.8132 C.ar    1  UNL1        0.0384
     20 C          66.3096   93.1092   14.3021 C.ar    1  UNL1        0.0215
     21 C          65.1845   92.3400   14.9287 C.ar    1  UNL1        0.1061
     22 C          64.2407   91.5555   14.0662 C.ar    1  UNL1        0.0259
     23 C          64.4219   91.5402   12.5773 C.ar    1  UNL1        0.0887
     24 S          65.0033   92.3554   16.4176 S.O2    1  UNL1        0.0105
     25 C          64.8221   92.3707   17.9065 C.3     1  UNL1        0.1816
     26 O          66.4442   92.7352   16.5891 O.2     1  UNL1       -0.1686
     27 O          63.5623   91.9756   16.2461 O.2     1  UNL1       -0.1686
     28 O          65.7282   92.2940   10.4618 O.3     1  UNL1       -0.4790
     29 C          68.1870   92.0376    9.6626 C.3     1  UNL1        0.0472
     30 C          66.9639   92.8853    9.8505 C.3     1  UNL1        0.1661
     31 C          66.9763   94.3242    9.4272 C.3     1  UNL1        0.0472
@<TRIPOS>BOND
     1    29    30    1
     2    30    31    1
     3    30    28    1
     4    28    18    1
     5    18    19   ar
     6    19    20   ar
     7    20    21   ar
     8    21    24    1
     9    24    25    1
    10    24    26    2
    11    24    27    2
    12    21    22   ar
    13    22    23   ar
    14    23     1    1
    15     1     2    2
    16     1     3   am
    17     3     4    1
    18     4     5    1
    19     5     6   ar
    20     6     7   ar
    21     7    11    1
    22    11    12   ar
    23    12    13   ar
    24    13    14   ar
    25    14    15   ar
    26    15    16   ar
    27    16    17    1
    28     7     8   ar
    29     8     9   ar
    30     9    10    1
    31    23    18   ar
    32    10     3    1
    33     9     5   ar
    34    16    11   ar
@<TRIPOS>MOLECULE
*****
 31 34 0 0 0
SMALL
GASTEIGER

@<TRIPOS>ATOM
      1 C          64.3592   89.9194   13.9131 C.2     1  UNL1        0.2525
      2 O          64.8070   90.5093   15.2175 O.2     1  UNL1       -0.2698
      3 N          64.0259   88.4596   13.8252 N.am    1  UNL1       -0.2660
      4 C          63.5674   87.7323   12.5960 C.3     1  UNL1        0.1236
      5 C          63.3508   86.2940   12.9623 C.ar    1  UNL1        0.0338
      6 C          62.9335   84.9555   12.4289 C.ar    1  UNL1        0.0991
      7 N          63.0002   83.9665   13.5548 N.ar    1  UNL1       -0.2265
      8 N          63.4587   84.6939   14.7840 N.ar    1  UNL1       -0.1679
      9 C          63.6754   86.1322   14.4178 C.ar    1  UNL1        0.0981
     10 C          64.0927   87.4707   14.9511 C.3     1  UNL1        0.1414
     11 C          62.6669   82.5068   13.4670 C.ar    1  UNL1        0.1102
     12 C          61.6193   81.9212   14.3667 C.ar    1  UNL1        0.0214
     13 C          61.2859   80.4613   14.2789 C.ar    1  UNL1        0.0017
     14 C          62.0003   79.5870   13.2913 C.ar    1  UNL1        0.0024
     15 C          63.0480   80.1726   12.3915 C.ar    1  UNL1        0.0312
     16 C          63.3813   81.6324   12.4794 C.ar    1  UNL1        0.1577
     17 F          64.4289   82.2180   11.5797 F       1  UNL1       -0.2026
     18 C          63.0091   90.7334   11.8478 C.ar    1  UNL1        0.1427
     19 C          62.8947   91.6034   10.6313 C.ar    1  UNL1        0.0384
     20 C          64.0159   92.5295   10.2634 C.ar    1  UNL1        0.0215
     21 C          65.2515   92.5856   11.1120 C.ar    1  UNL1        0.1061
     22 C          65.3659   91.7155   12.3286 C.ar    1  UNL1        0.0259
     23 C          64.2447   90.7894   12.6965 C.ar    1  UNL1        0.0887
     24 S          66.3726   93.5117   10.7440 S.O2    1  UNL1        0.0105
     25 C          67.4938   94.4378   10.3761 C.3     1  UNL1        0.1816
     26 O          65.3787   94.5907   10.4313 O.2     1  UNL1       -0.1686
     27 O          67.3666   92.4326   11.0569 O.2     1  UNL1       -0.1686
     28 O          61.8880   89.8073   12.2158 O.3     1  UNL1       -0.4790
     29 C          60.7662   88.7229   10.1384 C.3     1  UNL1        0.0472
     30 C          60.7046   89.6634   11.3053 C.3     1  UNL1        0.1661
     31 C          59.4598   90.4599   11.5619 C.3     1  UNL1        0.0472
@<TRIPOS>BOND
     1    29    30    1
     2    30    31    1
     3    30    28    1
     4    28    18    1
     5    18    19   ar
     6    19    20   ar
     7    20    21   ar
     8    21    24    1
     9    24    25    1
    10    24    26    2
    11    24    27    2
    12    21    22   ar
    13    22    23   ar
    14    23     1    1
    15     1     2    2
    16     1     3   am
    17     3     4    1
    18     4     5    1
    19     5     6   ar
    20     6     7   ar
    21     7    11    1
    22    11    12   ar
    23    12    13   ar
    24    13    14   ar
    25    14    15   ar
    26    15    16   ar
    27    16    17    1
    28     7     8   ar
    29     8     9   ar
    30     9    10    1
    31    23    18   ar
    32    10     3    1
    33     9     5   ar
    34    16    11   ar
@<TRIPOS>MOLECULE
*****
 31 34 0 0 0
SMALL
GASTEIGER

@<TRIPOS>ATOM
      1 C          62.3641   85.5850   11.2651 C.2     1  UNL1        0.2525
      2 O          62.3450   84.0964   11.0818 O.2     1  UNL1       -0.2698
      3 N          61.6703   86.4717   10.2739 N.am    1  UNL1       -0.2660
      4 C          61.6044   87.9694   10.3256 C.3     1  UNL1        0.1236
      5 C          60.8140   88.4397    9.1406 C.ar    1  UNL1        0.0338
      6 C          60.2847   89.6559    8.4402 C.ar    1  UNL1        0.0991
      7 N          59.5349   89.2007    7.2234 N.ar    1  UNL1       -0.2265
      8 N          59.6008   87.7029    7.1718 N.ar    1  UNL1       -0.1679
      9 C          60.3913   87.2327    8.3567 C.ar    1  UNL1        0.0981
     10 C          60.9206   86.0164    9.0571 C.3     1  UNL1        0.1414
     11 C          58.8412   90.0873    6.2323 C.ar    1  UNL1        0.1102
     12 C          57.3434   90.0929    6.1506 C.ar    1  UNL1        0.0214
     13 C          56.6495   90.9796    5.1595 C.ar    1  UNL1        0.0017
     14 C          57.4535   91.8606    4.2499 C.ar    1  UNL1        0.0024
     15 C          58.9513   91.8551    4.3315 C.ar    1  UNL1        0.0312
     16 C          59.6451   90.9684    5.3226 C.ar    1  UNL1        0.1577
     17 F          61.1428   90.9628    5.4043 F       1  UNL1       -0.2026
     18 C          63.7162   85.2982   13.4650 C.ar    1  UNL1        0.1427
     19 C          64.4291   85.9002   14.6395 C.ar    1  UNL1        0.0384
     20 C          64.5029   87.3909   14.7885 C.ar    1  UNL1        0.0215
     21 C          63.8637   88.2798   13.7631 C.ar    1  UNL1        0.1061
     22 C          63.1508   87.6777   12.5886 C.ar    1  UNL1        0.0259
     23 C          63.0770   86.1870   12.4396 C.ar    1  UNL1        0.0887
     24 S          63.9375   89.7705   13.9122 S.O2    1  UNL1        0.0105
     25 C          64.0112   91.2612   14.0612 C.3     1  UNL1        0.1816
     26 O          65.2589   89.6354   14.6090 O.2     1  UNL1       -0.1686
     27 O          62.6160   89.9055   13.2153 O.2     1  UNL1       -0.1686
     28 O          63.6425   83.8075   13.3160 O.3     1  UNL1       -0.4790
     29 C          62.0971   83.6491   15.3985 C.3     1  UNL1        0.0472
     30 C          62.7257   83.0102   14.1957 C.3     1  UNL1        0.1661
     31 C          62.4377   81.5740   13.8726 C.3     1  UNL1        0.0472
@<TRIPOS>BOND
     1    29    30    1
     2    30    31    1
     3    30    28    1
     4    28    18    1
     5    18    19   ar
     6    19    20   ar
     7    20    21   ar
     8    21    24    1
     9    24    25    1
    10    24    26    2
    11    24    27    2
    12    21    22   ar
    13    22    23   ar
    14    23     1    1
    15     1     2    2
    16     1     3   am
    17     3     4    1
    18     4     5    1
    19     5     6   ar
    20     6     7   ar
    21     7    11    1
    22    11    12   ar
    23    12    13   ar
    24    13    14   ar
    25    14    15   ar
    26    15    16   ar
    27    16    17    1
    28     7     8   ar
    29     8     9   ar
    30     9    10    1
    31    23    18   ar
    32    10     3    1
    33     9     5   ar
    34    16    11   ar
@<TRIPOS>MOLECULE
*****
 31 34 0 0 0
SMALL
GASTEIGER

@<TRIPOS>ATOM
      1 C          59.9063   88.8058   10.9614 C.2     1  UNL1        0.2525
      2 O          58.6896   88.5433   11.7984 O.2     1  UNL1       -0.2698
      3 N          61.1332   89.4003   11.5871 N.am    1  UNL1       -0.2660
      4 C          62.4179   89.7172   10.8807 C.3     1  UNL1        0.1236
      5 C          63.3693   90.2950   11.8861 C.ar    1  UNL1        0.0338
      6 C          64.7514   90.8479   12.0710 C.ar    1  UNL1        0.0991
      7 N          64.9089   91.2298   13.5130 N.ar    1  UNL1       -0.2265
      8 N          63.6241   90.9128   14.2194 N.ar    1  UNL1       -0.1679
      9 C          62.6727   90.3351   13.2139 C.ar    1  UNL1        0.0981
     10 C          61.2906   89.7821   13.0291 C.3     1  UNL1        0.1414
     11 C          66.1356   91.8242   14.1387 C.ar    1  UNL1        0.1102
     12 C          67.4032   91.9369   13.3446 C.ar    1  UNL1        0.0214
     13 C          68.6300   92.5314   13.9703 C.ar    1  UNL1        0.0017
     14 C          68.5893   93.0132   15.3902 C.ar    1  UNL1        0.0024
     15 C          67.3217   92.9005   16.1844 C.ar    1  UNL1        0.0312
     16 C          66.0950   92.3061   15.5587 C.ar    1  UNL1        0.1577
     17 F          64.8275   92.1934   16.3528 F       1  UNL1       -0.2026
     18 C          60.2554   87.0913    9.0407 C.ar    1  UNL1        0.1427
     19 C          60.2453   86.7594    7.5779 C.ar    1  UNL1        0.0384
     20 C          59.8761   87.8100    6.5730 C.ar    1  UNL1        0.0215
     21 C          59.5169   89.1926    7.0308 C.ar    1  UNL1        0.1061
     22 C          59.5270   89.5244    8.4937 C.ar    1  UNL1        0.0259
     23 C          59.8963   88.4739    9.4986 C.ar    1  UNL1        0.0887
     24 S          59.1477   90.2431    6.0259 S.O2    1  UNL1        0.0105
     25 C          58.7784   91.2937    5.0209 C.3     1  UNL1        0.1816
     26 O          60.5973   90.4302    5.6887 O.2     1  UNL1       -0.1686
     27 O          57.6980   90.0561    6.3630 O.2     1  UNL1       -0.1686
     28 O          60.6247   86.0407   10.0456 O.3     1  UNL1       -0.4790
     29 C          62.6366   85.9826   11.6884 C.3     1  UNL1        0.0472
     30 C          62.0683   85.7411   10.3214 C.3     1  UNL1        0.1661
     31 C          62.9437   85.2000    9.2301 C.3     1  UNL1        0.0472
@<TRIPOS>BOND
     1    29    30    1
     2    30    31    1
     3    30    28    1
     4    28    18    1
     5    18    19   ar
     6    19    20   ar
     7    20    21   ar
     8    21    24    1
     9    24    25    1
    10    24    26    2
    11    24    27    2
    12    21    22   ar
    13    22    23   ar
    14    23     1    1
    15     1     2    2
    16     1     3   am
    17     3     4    1
    18     4     5    1
    19     5     6   ar
    20     6     7   ar
    21     7    11    1
    22    11    12   ar
    23    12    13   ar
    24    13    14   ar
    25    14    15   ar
    26    15    16   ar
    27    16    17    1
    28     7     8   ar
    29     8     9   ar
    30     9    10    1
    31    23    18   ar
    32    10     3    1
    33     9     5   ar
    34    16    11   ar
