@<TRIPOS>MOLECULE
*****
 40 43 0 0 0
SMALL
GASTEIGER

@<TRIPOS>ATOM
      1 C          58.5746   90.1052    6.0418 C.3     1  UNL1        0.1011
      2 C          57.0762   90.1464    6.0953 C.3     1  UNL1        0.0265
      3 N          59.3145   90.9746    5.0688 N.am    1  UNL1       -0.2438
      4 C          60.7764   90.7477    4.8214 C.3     1  UNL1        0.1009
      5 C          61.5162   91.6171    3.8483 C.3     1  UNL1        0.0662
      6 C          60.7941   92.7134    3.1227 C.3     1  UNL1        0.1600
      7 O          59.3321   92.9404    3.3701 O.3     1  UNL1       -0.4374
      8 C          58.5923   92.0710    4.3431 C.2     1  UNL1        0.4051
      9 O          57.1304   92.2980    4.5905 O.2     1  UNL1       -0.2262
     10 C          62.1713   92.8883    2.5548 C.ar    1  UNL1        0.0138
     11 C          62.6302   94.2433    2.1038 C.ar    1  UNL1       -0.0010
     12 C          64.0074   94.4182    1.5359 C.ar    1  UNL1       -0.0002
     13 C          64.9259   93.2381    1.4190 C.ar    1  UNL1       -0.0000
     14 C          64.4671   91.8831    1.8698 C.ar    1  UNL1       -0.0002
     15 C          63.0898   91.7081    2.4378 C.ar    1  UNL1       -0.0010
     16 C          60.5502   93.8705    2.1998 C.3     1  UNL1        0.0714
     17 C          59.6442   93.7073    1.0155 C.3     1  UNL1        0.0922
     18 C          59.9218   92.2332    1.0063 C.3     1  UNL1        0.0294
     19 C          59.3666   95.1814    1.0246 C.3     1  UNL1        0.0294
     20 O          58.7382   93.5440   -0.1688 O.3     1  UNL1       -0.3866
     21 H          58.7122   92.6101   -0.4297 H       1  UNL1        0.2102
     22 C          60.8506   87.3738    8.8003 C.ar    1  UNL1        0.0002
     23 C          60.8387   88.8526    9.0509 C.ar    1  UNL1       -0.0003
     24 C          60.0801   89.7631    8.1314 C.ar    1  UNL1       -0.0027
     25 C          59.3333   89.1948    6.9613 C.ar    1  UNL1       -0.0042
     26 C          59.3451   87.7159    6.7107 C.ar    1  UNL1       -0.0027
     27 C          60.1037   86.8054    7.6302 C.ar    1  UNL1       -0.0003
     28 N          63.1265   84.6423   11.5588 N.ar    1  UNL1       -0.2917
     29 C          62.2189   85.6937   12.1252 C.ar    1  UNL1        0.0784
     30 C          61.4602   86.6042   11.2057 C.ar    1  UNL1        0.0189
     31 C          61.6092   86.4633    9.7198 C.ar    1  UNL1        0.0062
     32 C          62.5168   85.4119    9.1534 C.ar    1  UNL1        0.0608
     33 C          63.2754   84.5014   10.0729 C.ar    1  UNL1        0.2611
     34 O          64.1830   83.4500    9.5064 O.2     1  UNL1       -0.2670
     35 C          63.8851   83.7318   12.4783 C.3     1  UNL1        0.1361
     36 C          63.1544   82.9456   13.5261 C.3     1  UNL1        0.1138
     37 C          63.8111   83.7638   14.5980 C.3     1  UNL1        0.0316
     38 C          62.4978   82.1273   12.4541 C.3     1  UNL1        0.0316
     39 C          61.3940   81.1464   14.1695 C.3     1  UNL1        0.1740
     40 O          62.4238   82.1593   14.5739 O.3     1  UNL1       -0.3540
@<TRIPOS>BOND
     1    39    40    1
     2    40    36    1
     3    36    37    1
     4    36    38    1
     5    36    35    1
     6    35    28    1
     7    28    29   ar
     8    29    30   ar
     9    30    31   ar
    10    31    22    1
    11    22    23   ar
    12    23    24   ar
    13    24    25   ar
    14    25     1    1
    15     1     2    1
    16     1     3    1
    17     3     4    1
    18     4     5    1
    19     5     6    1
    20     6    16    1
    21    16    17    1
    22    17    18    1
    23    17    19    1
    24    17    20    1
    25     6    10    1
    26    10    11   ar
    27    11    12   ar
    28    12    13   ar
    29    13    14   ar
    30    14    15   ar
    31     6     7    1
    32     7     8    1
    33     8     9    2
    34    25    26   ar
    35    26    27   ar
    36    31    32   ar
    37    32    33   ar
    38    33    34    2
    39    33    28   ar
    40    27    22   ar
    41     8     3   am
    42    15    10   ar
    43    20    21    1
@<TRIPOS>MOLECULE
*****
 40 43 0 0 0
SMALL
GASTEIGER

@<TRIPOS>ATOM
      1 C          58.6100   90.1236    6.0264 C.3     1  UNL1        0.1011
      2 C          57.1161   90.0163    5.9448 C.3     1  UNL1        0.0265
      3 N          59.3536   90.9929    5.0562 N.am    1  UNL1       -0.2438
      4 C          60.8114   90.7519    4.7979 C.3     1  UNL1        0.1009
      5 C          61.5550   91.6213    3.8276 C.3     1  UNL1        0.0662
      6 C          60.8407   92.7316    3.1157 C.3     1  UNL1        0.1600
      7 O          59.3829   92.9726    3.3739 O.3     1  UNL1       -0.4374
      8 C          58.6393   92.1033    4.3441 C.2     1  UNL1        0.4051
      9 O          57.1815   92.3443    4.6023 O.2     1  UNL1       -0.2262
     10 C          62.2163   92.8960    2.5408 C.ar    1  UNL1        0.0138
     11 C          63.1099   91.7020    2.3804 C.ar    1  UNL1       -0.0010
     12 C          64.4855   91.8664    1.8056 C.ar    1  UNL1       -0.0002
     13 C          64.9677   93.2250    1.3911 C.ar    1  UNL1       -0.0000
     14 C          64.0743   94.4191    1.5515 C.ar    1  UNL1       -0.0002
     15 C          62.6986   94.2547    2.1263 C.ar    1  UNL1       -0.0010
     16 C          60.6042   93.8991    2.2040 C.3     1  UNL1        0.0714
     17 C          59.6776   93.7602    1.0326 C.3     1  UNL1        0.0922
     18 C          59.3946   95.2325    1.0819 C.3     1  UNL1        0.0294
     19 C          59.9605   92.2879    0.9833 C.3     1  UNL1        0.0294
     20 O          58.7509   93.6214   -0.1388 O.3     1  UNL1       -0.3866
     21 H          58.3787   94.4890   -0.3613 H       1  UNL1        0.2102
     22 C          60.8611   87.8376    9.1818 C.ar    1  UNL1        0.0002
     23 C          60.1302   87.1000    8.0994 C.ar    1  UNL1       -0.0003
     24 C          59.3798   87.8621    7.0475 C.ar    1  UNL1       -0.0027
     25 C          59.3604   89.3616    7.0782 C.ar    1  UNL1       -0.0042
     26 C          60.0913   90.0991    8.1607 C.ar    1  UNL1       -0.0027
     27 C          60.8417   89.3371    9.2125 C.ar    1  UNL1       -0.0003
     28 N          63.1121   85.5515   12.3373 N.ar    1  UNL1       -0.2917
     29 C          62.3935   84.8144   11.2463 C.ar    1  UNL1        0.0784
     30 C          61.6432   85.5764   10.1945 C.ar    1  UNL1        0.0189
     31 C          61.6114   87.0755   10.2336 C.ar    1  UNL1        0.0062
     32 C          62.3300   87.8126   11.3246 C.ar    1  UNL1        0.0608
     33 C          63.0804   87.0506   12.3764 C.ar    1  UNL1        0.2611
     34 O          63.7990   87.7878   13.4674 O.2     1  UNL1       -0.2670
     35 C          63.8625   84.7895   13.3891 C.3     1  UNL1        0.1361
     36 C          63.2936   83.5166   13.9422 C.3     1  UNL1        0.1138
     37 C          64.2313   82.7233   13.0811 C.3     1  UNL1        0.0316
     38 C          62.3559   84.3098   14.8033 C.3     1  UNL1        0.0316
     39 C          61.9716   81.3065   13.5984 C.3     1  UNL1        0.1740
     40 O          62.7248   82.2435   14.4954 O.3     1  UNL1       -0.3540
@<TRIPOS>BOND
     1    39    40    1
     2    40    36    1
     3    36    37    1
     4    36    38    1
     5    36    35    1
     6    35    28    1
     7    28    29   ar
     8    29    30   ar
     9    30    31   ar
    10    31    22    1
    11    22    23   ar
    12    23    24   ar
    13    24    25   ar
    14    25     1    1
    15     1     2    1
    16     1     3    1
    17     3     4    1
    18     4     5    1
    19     5     6    1
    20     6    16    1
    21    16    17    1
    22    17    18    1
    23    17    19    1
    24    17    20    1
    25     6    10    1
    26    10    11   ar
    27    11    12   ar
    28    12    13   ar
    29    13    14   ar
    30    14    15   ar
    31     6     7    1
    32     7     8    1
    33     8     9    2
    34    25    26   ar
    35    26    27   ar
    36    31    32   ar
    37    32    33   ar
    38    33    34    2
    39    33    28   ar
    40    27    22   ar
    41     8     3   am
    42    15    10   ar
    43    20    21    1
@<TRIPOS>MOLECULE
*****
 40 43 0 0 0
SMALL
GASTEIGER

@<TRIPOS>ATOM
      1 C          58.8214   89.4376    6.6927 C.3     1  UNL1        0.1011
      2 C          57.3391   89.2099    6.7230 C.3     1  UNL1        0.0265
      3 N          59.7072   88.7432    7.6842 N.am    1  UNL1       -0.2438
      4 C          60.1840   87.3467    7.4149 C.3     1  UNL1        0.1009
      5 C          61.0698   86.6523    8.4065 C.3     1  UNL1        0.0662
      6 C          61.4788   87.3544    9.6673 C.3     1  UNL1        0.1600
      7 O          61.0020   88.7509    9.9367 O.3     1  UNL1       -0.4374
      8 C          60.1162   89.4453    8.9452 C.2     1  UNL1        0.4051
      9 O          59.6394   90.8417    9.2145 O.2     1  UNL1       -0.2262
     10 C          62.1825   86.0437    9.8590 C.ar    1  UNL1        0.0138
     11 C          62.0957   85.3313   11.1761 C.ar    1  UNL1       -0.0010
     12 C          62.7994   84.0206   11.3678 C.ar    1  UNL1       -0.0002
     13 C          63.5900   83.4222   10.2423 C.ar    1  UNL1       -0.0000
     14 C          63.6769   84.1345    8.9251 C.ar    1  UNL1       -0.0002
     15 C          62.9732   85.4453    8.7334 C.ar    1  UNL1       -0.0010
     16 C          62.1322   87.6013   10.9948 C.3     1  UNL1        0.0714
     17 C          61.6906   88.7555   11.8449 C.3     1  UNL1        0.0922
     18 C          63.0606   89.3573   11.7396 C.3     1  UNL1        0.0294
     19 C          60.3206   88.1538   11.9503 C.3     1  UNL1        0.0294
     20 O          61.2490   89.9098   12.6951 O.3     1  UNL1       -0.3866
     21 H          61.9890   90.5255   12.8141 H       1  UNL1        0.2102
     22 C          60.6108   92.2038    3.6274 C.ar    1  UNL1        0.0002
     23 C          59.1487   92.2886    3.9515 C.ar    1  UNL1       -0.0003
     24 C          58.5522   91.3665    4.9732 C.ar    1  UNL1       -0.0027
     25 C          59.4178   90.3597    5.6710 C.ar    1  UNL1       -0.0042
     26 C          60.8799   90.2749    5.3470 C.ar    1  UNL1       -0.0027
     27 C          61.4764   91.1970    4.3252 C.ar    1  UNL1       -0.0003
     28 N          62.4002   94.9700    0.5622 N.ar    1  UNL1       -0.2917
     29 C          63.1887   93.7973    1.0652 C.ar    1  UNL1        0.0784
     30 C          62.5922   92.8753    2.0870 C.ar    1  UNL1        0.0189
     31 C          61.2073   93.1259    2.6057 C.ar    1  UNL1        0.0062
     32 C          60.4188   94.2986    2.1026 C.ar    1  UNL1        0.0608
     33 C          61.0153   95.2206    1.0809 C.ar    1  UNL1        0.2611
     34 O          60.2268   96.3934    0.5778 O.2     1  UNL1       -0.2670
     35 C          62.9967   95.8921   -0.4596 C.3     1  UNL1        0.1361
     36 C          63.6618   95.3291   -1.6805 C.3     1  UNL1        0.1138
     37 C          64.9961   95.7730   -1.1583 C.3     1  UNL1        0.0316
     38 C          62.3276   94.8851   -2.2026 C.3     1  UNL1        0.0316
     39 C          63.9675   93.3925   -3.3853 C.3     1  UNL1        0.1740
     40 O          64.3271   94.7660   -2.9014 O.3     1  UNL1       -0.3540
@<TRIPOS>BOND
     1    39    40    1
     2    40    36    1
     3    36    37    1
     4    36    38    1
     5    36    35    1
     6    35    28    1
     7    28    29   ar
     8    29    30   ar
     9    30    31   ar
    10    31    22    1
    11    22    23   ar
    12    23    24   ar
    13    24    25   ar
    14    25     1    1
    15     1     2    1
    16     1     3    1
    17     3     4    1
    18     4     5    1
    19     5     6    1
    20     6    16    1
    21    16    17    1
    22    17    18    1
    23    17    19    1
    24    17    20    1
    25     6    10    1
    26    10    11   ar
    27    11    12   ar
    28    12    13   ar
    29    13    14   ar
    30    14    15   ar
    31     6     7    1
    32     7     8    1
    33     8     9    2
    34    25    26   ar
    35    26    27   ar
    36    31    32   ar
    37    32    33   ar
    38    33    34    2
    39    33    28   ar
    40    27    22   ar
    41     8     3   am
    42    15    10   ar
    43    20    21    1
@<TRIPOS>MOLECULE
*****
 40 43 0 0 0
SMALL
GASTEIGER

@<TRIPOS>ATOM
      1 C          59.0741   89.6081    6.7441 C.3     1  UNL1        0.1011
      2 C          57.6523   89.1329    6.6915 C.3     1  UNL1        0.0265
      3 N          59.9583   89.2031    7.8861 N.am    1  UNL1       -0.2438
      4 C          60.6304   90.2514    8.7225 C.3     1  UNL1        0.1009
      5 C          61.5146   89.8464    9.8646 C.3     1  UNL1        0.0662
      6 C          61.7267   88.3933   10.1702 C.3     1  UNL1        0.1600
      7 O          61.0546   87.3451    9.3338 O.3     1  UNL1       -0.4374
      8 C          60.1704   87.7500    8.1918 C.2     1  UNL1        0.4051
      9 O          59.4983   86.7018    7.3554 O.2     1  UNL1       -0.2262
     10 C          62.5748   89.0114   11.2419 C.ar    1  UNL1        0.0138
     11 C          63.0165   88.1893   12.4162 C.ar    1  UNL1       -0.0010
     12 C          63.8645   88.8074   13.4880 C.ar    1  UNL1       -0.0002
     13 C          64.2709   90.2476   13.3855 C.ar    1  UNL1       -0.0000
     14 C          63.8293   91.0698   12.2112 C.ar    1  UNL1       -0.0002
     15 C          62.9812   90.4517   11.1394 C.ar    1  UNL1       -0.0010
     16 C          62.2334   87.1548   10.8480 C.3     1  UNL1        0.0714
     17 C          62.5109   85.9196   10.0434 C.3     1  UNL1        0.0922
     18 C          63.1697   86.7559    8.9867 C.3     1  UNL1        0.0294
     19 C          61.8521   85.0832   11.1001 C.3     1  UNL1        0.0294
     20 O          62.7883   84.6844    9.2388 O.3     1  UNL1       -0.3866
     21 H          63.2498   84.9280    8.4211 H       1  UNL1        0.2102
     22 C          60.6867   92.2481    3.4762 C.ar    1  UNL1        0.0002
     23 C          59.2457   92.3497    3.8799 C.ar    1  UNL1       -0.0003
     24 C          58.7081   91.4697    4.9692 C.ar    1  UNL1       -0.0027
     25 C          59.6116   90.4881    5.6548 C.ar    1  UNL1       -0.0042
     26 C          61.0527   90.3865    5.2511 C.ar    1  UNL1       -0.0027
     27 C          61.5902   91.2665    4.1618 C.ar    1  UNL1       -0.0003
     28 N          62.2993   94.8881    0.2082 N.ar    1  UNL1       -0.2917
     29 C          63.1407   93.7736    0.7558 C.ar    1  UNL1        0.0784
     30 C          62.6032   92.8936    1.8451 C.ar    1  UNL1        0.0189
     31 C          61.2243   93.1281    2.3869 C.ar    1  UNL1        0.0062
     32 C          60.3829   94.2426    1.8393 C.ar    1  UNL1        0.0608
     33 C          60.9204   95.1226    0.7499 C.ar    1  UNL1        0.2611
     34 O          60.0789   96.2372    0.2023 O.2     1  UNL1       -0.2670
     35 C          62.8369   95.7681   -0.8811 C.3     1  UNL1        0.1361
     36 C          63.5786   95.1636   -2.0362 C.3     1  UNL1        0.1138
     37 C          64.8529   95.7806   -1.5408 C.3     1  UNL1        0.0316
     38 C          62.3043   94.5466   -2.5316 C.3     1  UNL1        0.0316
     39 C          64.0243   93.1522   -3.6192 C.3     1  UNL1        0.1740
     40 O          64.3205   94.5591   -3.1914 O.3     1  UNL1       -0.3540
@<TRIPOS>BOND
     1    39    40    1
     2    40    36    1
     3    36    37    1
     4    36    38    1
     5    36    35    1
     6    35    28    1
     7    28    29   ar
     8    29    30   ar
     9    30    31   ar
    10    31    22    1
    11    22    23   ar
    12    23    24   ar
    13    24    25   ar
    14    25     1    1
    15     1     2    1
    16     1     3    1
    17     3     4    1
    18     4     5    1
    19     5     6    1
    20     6    16    1
    21    16    17    1
    22    17    18    1
    23    17    19    1
    24    17    20    1
    25     6    10    1
    26    10    11   ar
    27    11    12   ar
    28    12    13   ar
    29    13    14   ar
    30    14    15   ar
    31     6     7    1
    32     7     8    1
    33     8     9    2
    34    25    26   ar
    35    26    27   ar
    36    31    32   ar
    37    32    33   ar
    38    33    34    2
    39    33    28   ar
    40    27    22   ar
    41     8     3   am
    42    15    10   ar
    43    20    21    1
