@<TRIPOS>MOLECULE
*****
 23 24 0 0 0
SMALL
GASTEIGER

@<TRIPOS>ATOM
      1 N          65.6520   92.5124   13.2367 N.am    1  UNL1       -0.2537
      2 C          65.2703   92.6052   11.7891 C.2     1  UNL1        0.2536
      3 O          64.2207   91.6908   11.2301 O.2     1  UNL1       -0.2695
      4 C          65.9381   93.6123   10.9004 C.ar    1  UNL1        0.0645
      5 C          65.3694   94.9945   10.7736 C.ar    1  UNL1        0.0062
      6 C          66.0372   96.0016    9.8849 C.ar    1  UNL1        0.0116
      7 C          67.2737   95.6264    9.1230 C.ar    1  UNL1        0.0585
      8 CL         67.9415   96.6335    8.2343 Cl      1  UNL1       -0.0822
      9 C          67.8424   94.2443    9.2498 C.ar    1  UNL1        0.0229
     10 C          67.1746   93.2372   10.1385 C.ar    1  UNL1        0.0629
     11 CL         67.7433   91.8549   10.2653 Cl      1  UNL1       -0.0821
     12 C          64.9842   91.5053   14.1254 C.ar    1  UNL1        0.0542
     13 C          64.8063   90.0919   13.6558 C.ar    1  UNL1        0.0158
     14 C          64.1385   89.0848   14.5445 C.ar    1  UNL1        0.0127
     15 C          63.6486   89.4911   15.9028 C.ar    1  UNL1        0.0578
     16 CL         62.9808   88.4840   16.7915 Cl      1  UNL1       -0.0822
     17 C          63.8266   90.9046   16.3724 C.ar    1  UNL1        0.0127
     18 C          64.4944   91.9117   15.4837 C.ar    1  UNL1        0.0158
     19 C          66.7016   93.4268   13.7957 C.3     1  UNL1        0.1153
     20 N          68.8465   91.9619   13.7398 N.3     1  UNL1       -0.3197
     21 C          67.9025   92.8548   14.4890 C.3     1  UNL1        0.0873
     22 H          69.6001   91.6666   14.3605 H       1  UNL1        0.1189
     23 H          69.2384   92.4702   12.9471 H       1  UNL1        0.1189
@<TRIPOS>BOND
     1    20    21    1
     2    21    19    1
     3    19     1    1
     4     1     2   am
     5     2     3    2
     6     2     4    1
     7     4     5   ar
     8     5     6   ar
     9     6     7   ar
    10     7     8    1
    11     7     9   ar
    12     9    10   ar
    13    10    11    1
    14     1    12    1
    15    12    13   ar
    16    13    14   ar
    17    14    15   ar
    18    15    16    1
    19    15    17   ar
    20    17    18   ar
    21    10     4   ar
    22    18    12   ar
    23    20    22    1
    24    20    23    1
@<TRIPOS>MOLECULE
*****
 23 24 0 0 0
SMALL
GASTEIGER

@<TRIPOS>ATOM
      1 N          66.0246   91.7680   13.2102 N.am    1  UNL1       -0.2537
      2 C          64.6362   91.2006   13.2283 C.2     1  UNL1        0.2536
      3 O          63.6539   91.5875   12.1626 O.2     1  UNL1       -0.2695
      4 C          64.2300   90.2463   14.3119 C.ar    1  UNL1        0.0645
      5 C          64.2146   88.7703   14.0445 C.ar    1  UNL1        0.0062
      6 C          63.8085   87.8160   15.1281 C.ar    1  UNL1        0.0116
      7 C          63.4177   88.3376   16.4792 C.ar    1  UNL1        0.0585
      8 CL         63.0115   87.3833   17.5628 Cl      1  UNL1       -0.0822
      9 C          63.4331   89.8135   16.7465 C.ar    1  UNL1        0.0229
     10 C          63.8393   90.7678   15.6629 C.ar    1  UNL1        0.0629
     11 CL         63.8546   92.2438   15.9303 Cl      1  UNL1       -0.0821
     12 C          66.4308   92.7224   12.1266 C.ar    1  UNL1        0.0542
     13 C          66.0677   94.1740   12.2308 C.ar    1  UNL1        0.0158
     14 C          66.4739   95.1283   11.1471 C.ar    1  UNL1        0.0127
     15 C          67.2431   94.6310    9.9593 C.ar    1  UNL1        0.0578
     16 CL         67.6493   95.5854    8.8756 Cl      1  UNL1       -0.0822
     17 C          67.6062   93.1793    9.8550 C.ar    1  UNL1        0.0127
     18 C          67.2000   92.2250   10.9387 C.ar    1  UNL1        0.0158
     19 C          67.0069   91.3811   14.2758 C.3     1  UNL1        0.1153
     20 N          69.4060   92.3767   14.2234 N.3     1  UNL1       -0.3197
     21 C          68.0094   92.3812   14.7706 C.3     1  UNL1        0.0873
     22 H          69.9478   93.1177   14.6682 H       1  UNL1        0.1189
     23 H          69.3770   92.5344   13.2161 H       1  UNL1        0.1189
@<TRIPOS>BOND
     1    20    21    1
     2    21    19    1
     3    19     1    1
     4     1     2   am
     5     2     3    2
     6     2     4    1
     7     4     5   ar
     8     5     6   ar
     9     6     7   ar
    10     7     8    1
    11     7     9   ar
    12     9    10   ar
    13    10    11    1
    14     1    12    1
    15    12    13   ar
    16    13    14   ar
    17    14    15   ar
    18    15    16    1
    19    15    17   ar
    20    17    18   ar
    21    10     4   ar
    22    18    12   ar
    23    20    22    1
    24    20    23    1
@<TRIPOS>MOLECULE
*****
 23 24 0 0 0
SMALL
GASTEIGER

@<TRIPOS>ATOM
      1 N          64.1340   90.5453   13.6437 N.am    1  UNL1       -0.2537
      2 C          65.4393   91.2843   13.6445 C.2     1  UNL1        0.2536
      3 O          66.5077   90.9185   14.6318 O.2     1  UNL1       -0.2695
      4 C          65.6762   92.3892   12.6581 C.ar    1  UNL1        0.0645
      5 C          65.3411   92.1865   11.2100 C.ar    1  UNL1        0.0062
      6 C          65.5780   93.2914   10.2236 C.ar    1  UNL1        0.0116
      7 C          66.1500   94.5990   10.6852 C.ar    1  UNL1        0.0585
      8 CL         66.3869   95.7039    9.6987 Cl      1  UNL1       -0.0822
      9 C          66.4851   94.8017   12.1331 C.ar    1  UNL1        0.0229
     10 C          66.2482   93.6968   13.1196 C.ar    1  UNL1        0.0629
     11 CL         66.5833   93.8996   14.5676 Cl      1  UNL1       -0.0821
     12 C          63.8971   89.4404   14.6301 C.ar    1  UNL1        0.0542
     13 C          64.3140   88.0379   14.2998 C.ar    1  UNL1        0.0158
     14 C          64.0771   86.9330   15.2863 C.ar    1  UNL1        0.0127
     15 C          63.4233   87.2306   16.6030 C.ar    1  UNL1        0.0578
     16 CL         63.1864   86.1257   17.5895 Cl      1  UNL1       -0.0822
     17 C          63.0063   88.6332   16.9334 C.ar    1  UNL1        0.0127
     18 C          63.2433   89.7380   15.9470 C.ar    1  UNL1        0.0158
     19 C          63.0656   90.9111   12.6564 C.3     1  UNL1        0.1153
     20 N          60.7450   89.7480   12.5487 N.3     1  UNL1       -0.3197
     21 C          62.1702   89.8482   12.0920 C.3     1  UNL1        0.0873
     22 H          60.2866   88.9755   12.0654 H       1  UNL1        0.1189
     23 H          60.2579   90.6187   12.3365 H       1  UNL1        0.1189
@<TRIPOS>BOND
     1    20    21    1
     2    21    19    1
     3    19     1    1
     4     1     2   am
     5     2     3    2
     6     2     4    1
     7     4     5   ar
     8     5     6   ar
     9     6     7   ar
    10     7     8    1
    11     7     9   ar
    12     9    10   ar
    13    10    11    1
    14     1    12    1
    15    12    13   ar
    16    13    14   ar
    17    14    15   ar
    18    15    16    1
    19    15    17   ar
    20    17    18   ar
    21    10     4   ar
    22    18    12   ar
    23    20    22    1
    24    20    23    1
@<TRIPOS>MOLECULE
*****
 23 24 0 0 0
SMALL
GASTEIGER

@<TRIPOS>ATOM
      1 N          64.8016   91.6681   12.5684 N.am    1  UNL1       -0.2537
      2 C          66.0081   92.5502   12.6953 C.2     1  UNL1        0.2536
      3 O          66.8015   92.5574   13.9683 O.2     1  UNL1       -0.2695
      4 C          66.4213   93.4253   11.5492 C.ar    1  UNL1        0.0645
      5 C          65.8172   94.7892   11.3911 C.ar    1  UNL1        0.0062
      6 C          66.2304   95.6642   10.2450 C.ar    1  UNL1        0.0116
      7 C          67.2477   95.1754    9.2569 C.ar    1  UNL1        0.0585
      8 CL         67.6609   96.0504    8.1108 Cl      1  UNL1       -0.0822
      9 C          67.8517   93.8115    9.4150 C.ar    1  UNL1        0.0229
     10 C          67.4385   92.9365   10.5611 C.ar    1  UNL1        0.0629
     11 CL         68.0426   91.5726   10.7191 Cl      1  UNL1       -0.0821
     12 C          64.3885   90.7930   13.7145 C.ar    1  UNL1        0.0542
     13 C          63.9294   91.4106   15.0020 C.ar    1  UNL1        0.0158
     14 C          63.5162   90.5355   16.1482 C.ar    1  UNL1        0.0127
     15 C          63.5621   89.0429   16.0067 C.ar    1  UNL1        0.0578
     16 CL         63.1489   88.1679   17.1528 Cl      1  UNL1       -0.0822
     17 C          64.0211   88.4253   14.7191 C.ar    1  UNL1        0.0127
     18 C          64.4343   89.3004   13.5730 C.ar    1  UNL1        0.0158
     19 C          64.0083   91.6609   11.2953 C.3     1  UNL1        0.1153
     20 N          62.0697   90.6171    9.9162 N.3     1  UNL1       -0.3197
     21 C          62.6833   90.9600   11.2413 C.3     1  UNL1        0.0873
     22 H          61.1768   90.1474   10.0662 H       1  UNL1        0.1189
     23 H          62.6966   89.9991    9.4009 H       1  UNL1        0.1189
@<TRIPOS>BOND
     1    20    21    1
     2    21    19    1
     3    19     1    1
     4     1     2   am
     5     2     3    2
     6     2     4    1
     7     4     5   ar
     8     5     6   ar
     9     6     7   ar
    10     7     8    1
    11     7     9   ar
    12     9    10   ar
    13    10    11    1
    14     1    12    1
    15    12    13   ar
    16    13    14   ar
    17    14    15   ar
    18    15    16    1
    19    15    17   ar
    20    17    18   ar
    21    10     4   ar
    22    18    12   ar
    23    20    22    1
    24    20    23    1
@<TRIPOS>MOLECULE
*****
 23 24 0 0 0
SMALL
GASTEIGER

@<TRIPOS>ATOM
      1 N          64.1320   90.9846   12.4821 N.am    1  UNL1       -0.2537
      2 C          64.8389   90.5088   13.7166 C.2     1  UNL1        0.2536
      3 O          64.4864   89.1805   14.3178 O.2     1  UNL1       -0.2695
      4 C          65.8983   91.3613   14.3498 C.ar    1  UNL1        0.0645
      5 C          67.2255   91.5346   13.6726 C.ar    1  UNL1        0.0062
      6 C          68.2849   92.3871   14.3059 C.ar    1  UNL1        0.0116
      7 C          68.0170   93.0662   15.6163 C.ar    1  UNL1        0.0585
      8 CL         69.0764   93.9187   16.2496 Cl      1  UNL1       -0.0822
      9 C          66.6899   92.8928   16.2934 C.ar    1  UNL1        0.0229
     10 C          65.6305   92.0403   15.6602 C.ar    1  UNL1        0.0629
     11 CL         64.3033   91.8669   16.3374 Cl      1  UNL1       -0.0821
     12 C          63.0726   90.1321   11.8489 C.ar    1  UNL1        0.0542
     13 C          61.9301   90.7742   11.1193 C.ar    1  UNL1        0.0158
     14 C          60.8708   89.9217   10.4860 C.ar    1  UNL1        0.0127
     15 C          60.9539   88.4271   10.5824 C.ar    1  UNL1        0.0578
     16 CL         59.8945   87.5747    9.9491 Cl      1  UNL1       -0.0822
     17 C          62.0964   87.7850   11.3120 C.ar    1  UNL1        0.0127
     18 C          63.1558   88.6374   11.9452 C.ar    1  UNL1        0.0158
     19 C          64.4845   92.3129   11.8808 C.3     1  UNL1        0.1153
     20 N          65.6743   93.7032   10.0367 N.3     1  UNL1       -0.3197
     21 C          65.3178   92.3748   10.6351 C.3     1  UNL1        0.0873
     22 H          66.2400   93.5585    9.2003 H       1  UNL1        0.1189
     23 H          66.2041   94.2505   10.7150 H       1  UNL1        0.1189
@<TRIPOS>BOND
     1    20    21    1
     2    21    19    1
     3    19     1    1
     4     1     2   am
     5     2     3    2
     6     2     4    1
     7     4     5   ar
     8     5     6   ar
     9     6     7   ar
    10     7     8    1
    11     7     9   ar
    12     9    10   ar
    13    10    11    1
    14     1    12    1
    15    12    13   ar
    16    13    14   ar
    17    14    15   ar
    18    15    16    1
    19    15    17   ar
    20    17    18   ar
    21    10     4   ar
    22    18    12   ar
    23    20    22    1
    24    20    23    1
@<TRIPOS>MOLECULE
*****
 23 24 0 0 0
SMALL
GASTEIGER

@<TRIPOS>ATOM
      1 N          63.6724   86.0131   13.6122 N.am    1  UNL1       -0.2537
      2 C          62.7385   85.2395   12.7294 C.2     1  UNL1        0.2536
      3 O          61.9130   85.9550   11.7014 O.2     1  UNL1       -0.2695
      4 C          62.6301   83.7505   12.8745 C.ar    1  UNL1        0.0645
      5 C          61.9840   83.1607   14.0930 C.ar    1  UNL1        0.0062
      6 C          61.8756   81.6717   14.2381 C.ar    1  UNL1        0.0116
      7 C          62.4134   80.7724   13.1647 C.ar    1  UNL1        0.0585
      8 CL         62.3050   79.2834   13.3098 Cl      1  UNL1       -0.0822
      9 C          63.0595   81.3622   11.9463 C.ar    1  UNL1        0.0229
     10 C          63.1679   82.8512   11.8012 C.ar    1  UNL1        0.0629
     11 CL         63.8141   83.4410   10.5826 Cl      1  UNL1       -0.0821
     12 C          63.7808   87.5021   13.4671 C.ar    1  UNL1        0.0542
     13 C          63.1879   88.1841   12.2699 C.ar    1  UNL1        0.0158
     14 C          63.2963   89.6732   12.1248 C.ar    1  UNL1        0.0127
     15 C          63.9976   90.4802   13.1769 C.ar    1  UNL1        0.0578
     16 CL         64.1059   91.9692   13.0318 Cl      1  UNL1       -0.0822
     17 C          64.5905   89.7982   14.3741 C.ar    1  UNL1        0.0127
     18 C          64.4821   88.3091   14.5192 C.ar    1  UNL1        0.0158
     19 C          64.4980   85.2977   14.6402 C.3     1  UNL1        0.1153
     20 N          62.6871   85.7645   16.4436 N.3     1  UNL1       -0.3197
     21 C          64.0546   85.2722   16.0729 C.3     1  UNL1        0.0873
     22 H          62.5551   85.6751   17.4511 H       1  UNL1        0.1189
     23 H          61.9827   85.2094   15.9578 H       1  UNL1        0.1189
@<TRIPOS>BOND
     1    20    21    1
     2    21    19    1
     3    19     1    1
     4     1     2   am
     5     2     3    2
     6     2     4    1
     7     4     5   ar
     8     5     6   ar
     9     6     7   ar
    10     7     8    1
    11     7     9   ar
    12     9    10   ar
    13    10    11    1
    14     1    12    1
    15    12    13   ar
    16    13    14   ar
    17    14    15   ar
    18    15    16    1
    19    15    17   ar
    20    17    18   ar
    21    10     4   ar
    22    18    12   ar
    23    20    22    1
    24    20    23    1
@<TRIPOS>MOLECULE
*****
 23 24 0 0 0
SMALL
GASTEIGER

@<TRIPOS>ATOM
      1 N          63.2238   90.2294   12.1606 N.am    1  UNL1       -0.2537
      2 C          62.9398   88.7566   12.1445 C.2     1  UNL1        0.2536
      3 O          63.5289   87.8676   13.1994 O.2     1  UNL1       -0.2695
      4 C          62.0667   88.1728   11.0736 C.ar    1  UNL1        0.0645
      5 C          62.6666   87.3056   10.0068 C.ar    1  UNL1        0.0062
      6 C          61.7936   86.7218    8.9358 C.ar    1  UNL1        0.0116
      7 C          60.3205   87.0052    8.9318 C.ar    1  UNL1        0.0585
      8 CL         59.4474   86.4214    7.8608 Cl      1  UNL1       -0.0822
      9 C          59.7207   87.8724    9.9985 C.ar    1  UNL1        0.0229
     10 C          60.5938   88.4562   11.0695 C.ar    1  UNL1        0.0629
     11 CL         59.9938   89.3235   12.1363 Cl      1  UNL1       -0.0821
     12 C          64.0969   90.8132   13.2315 C.ar    1  UNL1        0.0542
     13 C          63.6510   90.7805   14.6633 C.ar    1  UNL1        0.0158
     14 C          64.5241   91.3643   15.7343 C.ar    1  UNL1        0.0127
     15 C          65.8431   91.9808   15.3734 C.ar    1  UNL1        0.0578
     16 CL         66.7162   92.5647   16.4443 Cl      1  UNL1       -0.0822
     17 C          66.2890   92.0136   13.9415 C.ar    1  UNL1        0.0127
     18 C          65.4159   91.4297   12.8706 C.ar    1  UNL1        0.0158
     19 C          62.6346   91.1184   11.1058 C.3     1  UNL1        0.1153
     20 N          64.4767   92.6714   10.1339 N.3     1  UNL1       -0.3197
     21 C          63.4764   91.5691    9.9490 C.3     1  UNL1        0.0873
     22 H          64.9564   92.8470    9.2510 H       1  UNL1        0.1189
     23 H          65.1577   92.3973   10.8422 H       1  UNL1        0.1189
@<TRIPOS>BOND
     1    20    21    1
     2    21    19    1
     3    19     1    1
     4     1     2   am
     5     2     3    2
     6     2     4    1
     7     4     5   ar
     8     5     6   ar
     9     6     7   ar
    10     7     8    1
    11     7     9   ar
    12     9    10   ar
    13    10    11    1
    14     1    12    1
    15    12    13   ar
    16    13    14   ar
    17    14    15   ar
    18    15    16    1
    19    15    17   ar
    20    17    18   ar
    21    10     4   ar
    22    18    12   ar
    23    20    22    1
    24    20    23    1
@<TRIPOS>MOLECULE
*****
 23 24 0 0 0
SMALL
GASTEIGER

@<TRIPOS>ATOM
      1 N          64.2970   90.3513   13.2049 N.am    1  UNL1       -0.2537
      2 C          65.1638   91.5090   12.8067 C.2     1  UNL1        0.2536
      3 O          64.9702   92.1669   11.4726 O.2     1  UNL1       -0.2695
      4 C          66.2241   92.0087   13.7426 C.ar    1  UNL1        0.0645
      5 C          65.8479   92.4976   15.1099 C.ar    1  UNL1        0.0062
      6 C          66.9083   92.9974   16.0458 C.ar    1  UNL1        0.0116
      7 C          68.3449   93.0083   15.6143 C.ar    1  UNL1        0.0585
      8 CL         69.4053   93.5081   16.5501 Cl      1  UNL1       -0.0822
      9 C          68.7211   92.5195   14.2470 C.ar    1  UNL1        0.0229
     10 C          67.6607   92.0197   13.3112 C.ar    1  UNL1        0.0629
     11 CL         68.0369   91.5308   11.9438 Cl      1  UNL1       -0.0821
     12 C          63.2367   89.8516   12.2690 C.ar    1  UNL1        0.0542
     13 C          62.3311   90.8242   11.5735 C.ar    1  UNL1        0.0158
     14 C          61.2707   90.3245   10.6377 C.ar    1  UNL1        0.0127
     15 C          61.1159   88.8520   10.3973 C.ar    1  UNL1        0.0578
     16 CL         60.0555   88.3522    9.4615 Cl      1  UNL1       -0.0822
     17 C          62.0215   87.8792   11.0929 C.ar    1  UNL1        0.0127
     18 C          63.0818   88.3790   12.0287 C.ar    1  UNL1        0.0158
     19 C          64.4906   89.6934   14.5390 C.3     1  UNL1        0.1153
     20 N          63.3189   90.7199   16.6182 N.3     1  UNL1       -0.3197
     21 C          63.3720   89.6803   15.5382 C.3     1  UNL1        0.0873
     22 H          62.4984   90.5611   17.2029 H       1  UNL1        0.1189
     23 H          63.2611   91.6465   16.1956 H       1  UNL1        0.1189
@<TRIPOS>BOND
     1    20    21    1
     2    21    19    1
     3    19     1    1
     4     1     2   am
     5     2     3    2
     6     2     4    1
     7     4     5   ar
     8     5     6   ar
     9     6     7   ar
    10     7     8    1
    11     7     9   ar
    12     9    10   ar
    13    10    11    1
    14     1    12    1
    15    12    13   ar
    16    13    14   ar
    17    14    15   ar
    18    15    16    1
    19    15    17   ar
    20    17    18   ar
    21    10     4   ar
    22    18    12   ar
    23    20    22    1
    24    20    23    1
@<TRIPOS>MOLECULE
*****
 23 24 0 0 0
SMALL
GASTEIGER

@<TRIPOS>ATOM
      1 N          63.0991   86.4444   12.7879 N.am    1  UNL1       -0.2537
      2 C          63.7928   85.4123   13.6267 C.2     1  UNL1        0.2536
      3 O          64.8689   85.8257   14.5865 O.2     1  UNL1       -0.2695
      4 C          63.4104   83.9670   13.5057 C.ar    1  UNL1        0.0645
      5 C          64.0149   83.1191   12.4259 C.ar    1  UNL1        0.0062
      6 C          63.6326   81.6737   12.3049 C.ar    1  UNL1        0.0116
      7 C          62.6457   81.0762   13.2637 C.ar    1  UNL1        0.0585
      8 CL         62.2633   79.6308   13.1427 Cl      1  UNL1       -0.0822
      9 C          62.0412   81.9240   14.3433 C.ar    1  UNL1        0.0229
     10 C          62.4236   83.3694   14.4643 C.ar    1  UNL1        0.0629
     11 CL         61.8190   84.2173   15.5441 Cl      1  UNL1       -0.0821
     12 C          63.4814   87.8898   12.9089 C.ar    1  UNL1        0.0542
     13 C          64.2653   88.3612   14.0977 C.ar    1  UNL1        0.0158
     14 C          64.6477   89.8066   14.2187 C.ar    1  UNL1        0.0127
     15 C          64.2461   90.7806   13.1509 C.ar    1  UNL1        0.0578
     16 CL         64.6285   92.2260   13.2719 Cl      1  UNL1       -0.0822
     17 C          63.4622   90.3092   11.9621 C.ar    1  UNL1        0.0127
     18 C          63.0798   88.8638   11.8411 C.ar    1  UNL1        0.0158
     19 C          62.0230   86.0311   11.8280 C.3     1  UNL1        0.1153
     20 N          62.0089   86.5313    9.2787 N.3     1  UNL1       -0.3197
     21 C          62.3798   85.6380   10.4252 C.3     1  UNL1        0.0873
     22 H          62.3263   86.1121    8.4046 H       1  UNL1        0.1189
     23 H          62.4524   87.4418    9.3998 H       1  UNL1        0.1189
@<TRIPOS>BOND
     1    20    21    1
     2    21    19    1
     3    19     1    1
     4     1     2   am
     5     2     3    2
     6     2     4    1
     7     4     5   ar
     8     5     6   ar
     9     6     7   ar
    10     7     8    1
    11     7     9   ar
    12     9    10   ar
    13    10    11    1
    14     1    12    1
    15    12    13   ar
    16    13    14   ar
    17    14    15   ar
    18    15    16    1
    19    15    17   ar
    20    17    18   ar
    21    10     4   ar
    22    18    12   ar
    23    20    22    1
    24    20    23    1
