@<TRIPOS>MOLECULE
*****
 41 46 0 0 0
SMALL
GASTEIGER

@<TRIPOS>ATOM
      1 C          63.3579   84.2920   12.3654 C.ar    1  UNL1        0.0907
      2 C          63.2441   82.9659   13.0572 C.ar    1  UNL1        0.1496
      3 O          63.3965   83.1977   14.5314 O.2     1  UNL1       -0.4533
      4 C          63.6045   84.6670   14.7506 C.ar    1  UNL1        0.1454
      5 C          63.8125   85.4764   15.9962 C.ar    1  UNL1        0.0375
      6 C          63.9966   86.9621   15.9031 C.ar    1  UNL1        0.0031
      7 C          63.9727   87.6384   14.5644 C.ar    1  UNL1       -0.0001
      8 C          63.7647   86.8290   13.3188 C.ar    1  UNL1        0.0033
      9 C          63.5806   85.3433   13.4119 C.ar    1  UNL1        0.0419
     10 C          63.0178   81.6408   12.3918 C.ar    1  UNL1        0.0349
     11 C          63.1923   81.5071   10.9081 C.ar    1  UNL1        0.0053
     12 C          62.9659   80.1820   10.2426 C.ar    1  UNL1        0.0297
     13 C          62.5650   78.9905   11.0610 C.ar    1  UNL1        0.1401
     14 F          62.3386   77.6654   10.3956 F       1  UNL1       -0.2042
     15 C          62.3905   79.1243   12.5448 C.ar    1  UNL1        0.0297
     16 C          62.6168   80.4494   13.2102 C.ar    1  UNL1        0.0053
     17 C          64.1568   89.1242   14.4713 C.ar    1  UNL1       -0.0038
     18 C          64.7005   89.7353   13.2140 C.ar    1  UNL1        0.0042
     19 C          64.8846   91.2211   13.1210 C.ar    1  UNL1        0.0533
     20 C          64.5251   92.0957   14.2853 C.ar    1  UNL1        0.0042
     21 C          63.9814   91.4846   15.5427 C.ar    1  UNL1       -0.0041
     22 C          63.7973   89.9988   15.6357 C.ar    1  UNL1       -0.0218
     23 C          63.2536   89.3877   16.8931 C.3     1  UNL1        0.0310
     24 C          65.4283   91.8322   11.8636 C.2     1  UNL1        0.2460
     25 O          64.5304   92.0352   10.6794 O.2     1  UNL1       -0.2701
     26 N          66.8699   92.2402   11.7905 N.am    1  UNL1       -0.3006
     27 H          67.4592   92.1070   12.5678 H       1  UNL1        0.1499
     28 C          67.4135   92.8513   10.5332 C.3     1  UNL1        0.0762
     29 C          68.1943   92.9988    9.2609 C.3     1  UNL1        0.0242
     30 C          68.2852   91.7286   10.0537 C.3     1  UNL1        0.0242
     31 C          66.7307   94.1862   10.5759 C.ar    1  UNL1       -0.0032
     32 C          66.4643   94.8505   11.8942 C.ar    1  UNL1        0.0179
     33 C          65.7815   96.1854   11.9369 C.ar    1  UNL1        0.0986
     34 N          65.3651   96.8560   10.6614 N.ar    1  UNL1       -0.2423
     35 C          65.6315   96.1917    9.3433 C.ar    1  UNL1        0.0986
     36 C          66.3143   94.8568    9.3005 C.ar    1  UNL1        0.0179
     37 C          62.1315   85.6898    8.8593 C.3     1  UNL1        0.1109
     38 N          62.2241   85.4560   10.3381 N.am    1  UNL1       -0.2991
     39 C          63.2652   84.5257   10.8866 C.2     1  UNL1        0.2490
     40 O          64.2135   83.8293    9.9563 O.2     1  UNL1       -0.2700
     41 H          61.6017   85.9132   10.9487 H       1  UNL1        0.1498
@<TRIPOS>BOND
     1    37    38    1
     2    38    39   am
     3    39    40    2
     4    39     1    1
     5     1     2   ar
     6     2    10    1
     7    10    11   ar
     8    11    12   ar
     9    12    13   ar
    10    13    14    1
    11    13    15   ar
    12    15    16   ar
    13     2     3   ar
    14     3     4   ar
    15     4     5   ar
    16     5     6   ar
    17     6     7   ar
    18     7    17    1
    19    17    18   ar
    20    18    19   ar
    21    19    24    1
    22    24    25    2
    23    24    26   am
    24    26    28    1
    25    28    31    1
    26    31    32   ar
    27    32    33   ar
    28    33    34   ar
    29    34    35   ar
    30    35    36   ar
    31    28    29    1
    32    29    30    1
    33    19    20   ar
    34    20    21   ar
    35    21    22   ar
    36    22    23    1
    37     7     8   ar
    38     8     9   ar
    39     9     1   ar
    40    16    10   ar
    41     9     4   ar
    42    22    17   ar
    43    30    28    1
    44    36    31   ar
    45    38    41    1
    46    26    27    1
@<TRIPOS>MOLECULE
*****
 41 46 0 0 0
SMALL
GASTEIGER

@<TRIPOS>ATOM
      1 C          64.6077   91.4226   12.0637 C.ar    1  UNL1        0.0907
      2 C          64.8224   91.5467   13.5430 C.ar    1  UNL1        0.1496
      3 O          63.7521   90.7555   14.2347 O.2     1  UNL1       -0.4533
      4 C          62.8759   90.1424   13.1828 C.ar    1  UNL1        0.1454
      5 C          61.6649   89.2620   13.2735 C.ar    1  UNL1        0.0375
      6 C          60.9826   88.7939   12.0223 C.ar    1  UNL1        0.0031
      7 C          61.5114   89.2063   10.6805 C.ar    1  UNL1       -0.0001
      8 C          62.7224   90.0867   10.5899 C.ar    1  UNL1        0.0033
      9 C          63.4047   90.5547   11.8411 C.ar    1  UNL1        0.0419
     10 C          65.9155   92.3253   14.2131 C.ar    1  UNL1        0.0349
     11 C          66.6993   91.7066   15.3324 C.ar    1  UNL1        0.0053
     12 C          67.7924   92.4851   16.0024 C.ar    1  UNL1        0.0297
     13 C          68.1017   93.8824   15.5532 C.ar    1  UNL1        0.1401
     14 F          69.1948   94.6610   16.2232 F       1  UNL1       -0.2042
     15 C          67.3179   94.5011   14.4339 C.ar    1  UNL1        0.0297
     16 C          66.2248   93.7226   13.7638 C.ar    1  UNL1        0.0053
     17 C          60.8291   88.7381    9.4294 C.ar    1  UNL1       -0.0038
     18 C          60.4408   89.7281    8.3715 C.ar    1  UNL1        0.0042
     19 C          59.7585   89.2600    7.1203 C.ar    1  UNL1        0.0533
     20 C          59.4645   87.8018    6.9271 C.ar    1  UNL1        0.0042
     21 C          59.8529   86.8118    7.9850 C.ar    1  UNL1       -0.0041
     22 C          60.5351   87.2800    9.2361 C.ar    1  UNL1       -0.0218
     23 C          60.9235   86.2899   10.2940 C.3     1  UNL1        0.0310
     24 C          59.3702   90.2500    6.0625 C.2     1  UNL1        0.2460
     25 O          57.9213   90.5056    5.7701 O.2     1  UNL1       -0.2701
     26 N          60.4307   90.9845    5.2971 N.am    1  UNL1       -0.3006
     27 H          61.3816   90.8168    5.4891 H       1  UNL1        0.1499
     28 C          60.0424   91.9745    4.2393 C.3     1  UNL1        0.0762
     29 C          59.2091   92.9414    3.4514 C.3     1  UNL1        0.0242
     30 C          58.6263   92.2517    4.6492 C.3     1  UNL1        0.0242
     31 C          61.3235   92.0412    3.4620 C.ar    1  UNL1       -0.0032
     32 C          61.4895   93.0622    2.3757 C.ar    1  UNL1        0.0179
     33 C          62.7706   93.1289    1.5985 C.ar    1  UNL1        0.0986
     34 N          63.8859   92.1745    1.9075 N.ar    1  UNL1       -0.2423
     35 C          63.7199   91.1536    2.9937 C.ar    1  UNL1        0.0986
     36 C          62.4387   91.0869    3.7710 C.ar    1  UNL1        0.0179
     37 C          67.7677   92.4384    9.8881 C.3     1  UNL1        0.1109
     38 N          66.9270   91.8057   10.9572 N.am    1  UNL1       -0.2991
     39 C          65.4483   92.0554   10.9946 C.2     1  UNL1        0.2490
     40 O          64.8105   92.9378    9.9630 O.2     1  UNL1       -0.2700
     41 H          67.3457   91.2265   11.6344 H       1  UNL1        0.1498
@<TRIPOS>BOND
     1    37    38    1
     2    38    39   am
     3    39    40    2
     4    39     1    1
     5     1     2   ar
     6     2    10    1
     7    10    11   ar
     8    11    12   ar
     9    12    13   ar
    10    13    14    1
    11    13    15   ar
    12    15    16   ar
    13     2     3   ar
    14     3     4   ar
    15     4     5   ar
    16     5     6   ar
    17     6     7   ar
    18     7    17    1
    19    17    18   ar
    20    18    19   ar
    21    19    24    1
    22    24    25    2
    23    24    26   am
    24    26    28    1
    25    28    31    1
    26    31    32   ar
    27    32    33   ar
    28    33    34   ar
    29    34    35   ar
    30    35    36   ar
    31    28    29    1
    32    29    30    1
    33    19    20   ar
    34    20    21   ar
    35    21    22   ar
    36    22    23    1
    37     7     8   ar
    38     8     9   ar
    39     9     1   ar
    40    16    10   ar
    41     9     4   ar
    42    22    17   ar
    43    30    28    1
    44    36    31   ar
    45    38    41    1
    46    26    27    1
@<TRIPOS>MOLECULE
*****
 41 46 0 0 0
SMALL
GASTEIGER

@<TRIPOS>ATOM
      1 C          63.4027   84.4236   12.5828 C.ar    1  UNL1        0.0907
      2 C          63.4723   83.0675   13.2202 C.ar    1  UNL1        0.1496
      3 O          63.9185   83.2457   14.6412 O.2     1  UNL1       -0.4533
      4 C          64.1246   84.7118   14.8821 C.ar    1  UNL1        0.1454
      5 C          64.5613   85.4780   16.0954 C.ar    1  UNL1        0.0375
      6 C          64.6792   86.9721   16.0365 C.ar    1  UNL1        0.0031
      7 C          64.3605   87.7001   14.7644 C.ar    1  UNL1       -0.0001
      8 C          63.9237   86.9340   13.5510 C.ar    1  UNL1        0.0033
      9 C          63.8058   85.4398   13.6099 C.ar    1  UNL1        0.0419
     10 C          63.1521   81.7625   12.5537 C.ar    1  UNL1        0.0349
     11 C          62.7304   80.5827   13.3784 C.ar    1  UNL1        0.0053
     12 C          62.4102   79.2776   12.7118 C.ar    1  UNL1        0.0297
     13 C          62.5116   79.1524   11.2206 C.ar    1  UNL1        0.1401
     14 F          62.1913   77.8473   10.5540 F       1  UNL1       -0.2042
     15 C          62.9332   80.3322   10.3958 C.ar    1  UNL1        0.0297
     16 C          63.2535   81.6372   11.0624 C.ar    1  UNL1        0.0053
     17 C          64.4784   89.1944   14.7056 C.ar    1  UNL1       -0.0038
     18 C          65.4625   89.8328   13.7707 C.ar    1  UNL1        0.0042
     19 C          65.5804   91.3271   13.7119 C.ar    1  UNL1        0.0533
     20 C          64.7143   92.1828   14.5880 C.ar    1  UNL1        0.0042
     21 C          63.7303   91.5443   15.5229 C.ar    1  UNL1       -0.0041
     22 C          63.6123   90.0501   15.5817 C.ar    1  UNL1       -0.0218
     23 C          62.6283   89.4116   16.5166 C.3     1  UNL1        0.0310
     24 C          66.5645   91.9655   12.7770 C.2     1  UNL1        0.2460
     25 O          67.8122   92.5976   13.3187 O.2     1  UNL1       -0.2701
     26 N          66.3007   91.9718   11.3004 N.am    1  UNL1       -0.3006
     27 H          65.4818   91.5569   10.9448 H       1  UNL1        0.1499
     28 C          67.2848   92.6102   10.3655 C.3     1  UNL1        0.0762
     29 C          68.4419   92.7574    9.4225 C.3     1  UNL1        0.0242
     30 C          68.1250   91.4173   10.0174 C.3     1  UNL1        0.0242
     31 C          66.7864   94.0248   10.3889 C.ar    1  UNL1       -0.0032
     32 C          66.8711   94.8704    9.1529 C.ar    1  UNL1        0.0179
     33 C          66.3726   96.2850    9.1764 C.ar    1  UNL1        0.0986
     34 N          65.7895   96.8539   10.4358 N.ar    1  UNL1       -0.2423
     35 C          65.7048   96.0084   11.6717 C.ar    1  UNL1        0.0986
     36 C          66.2032   94.5937   11.6484 C.ar    1  UNL1        0.0179
     37 C          61.3782   85.8284    9.4718 C.3     1  UNL1        0.1109
     38 N          61.7803   85.5393   10.8877 N.am    1  UNL1       -0.2991
     39 C          63.0006   84.7127   11.1670 C.2     1  UNL1        0.2490
     40 O          63.8185   84.1753   10.0303 O.2     1  UNL1       -0.2700
     41 H          61.2434   85.8920   11.6337 H       1  UNL1        0.1498
@<TRIPOS>BOND
     1    37    38    1
     2    38    39   am
     3    39    40    2
     4    39     1    1
     5     1     2   ar
     6     2    10    1
     7    10    11   ar
     8    11    12   ar
     9    12    13   ar
    10    13    14    1
    11    13    15   ar
    12    15    16   ar
    13     2     3   ar
    14     3     4   ar
    15     4     5   ar
    16     5     6   ar
    17     6     7   ar
    18     7    17    1
    19    17    18   ar
    20    18    19   ar
    21    19    24    1
    22    24    25    2
    23    24    26   am
    24    26    28    1
    25    28    31    1
    26    31    32   ar
    27    32    33   ar
    28    33    34   ar
    29    34    35   ar
    30    35    36   ar
    31    28    29    1
    32    29    30    1
    33    19    20   ar
    34    20    21   ar
    35    21    22   ar
    36    22    23    1
    37     7     8   ar
    38     8     9   ar
    39     9     1   ar
    40    16    10   ar
    41     9     4   ar
    42    22    17   ar
    43    30    28    1
    44    36    31   ar
    45    38    41    1
    46    26    27    1
@<TRIPOS>MOLECULE
*****
 41 46 0 0 0
SMALL
GASTEIGER

@<TRIPOS>ATOM
      1 C          60.4618   87.9337    8.8559 C.ar    1  UNL1        0.0907
      2 C          60.1876   88.0105    7.3832 C.ar    1  UNL1        0.1496
      3 O          60.8453   86.8327    6.7273 O.2     1  UNL1       -0.4533
      4 C          61.5259   86.0280    7.7946 C.ar    1  UNL1        0.1454
      5 C          62.3309   84.7635    7.7385 C.ar    1  UNL1        0.0375
      6 C          62.8987   84.1795    8.9980 C.ar    1  UNL1        0.0031
      7 C          62.6617   84.8599   10.3136 C.ar    1  UNL1       -0.0001
      8 C          61.8567   86.1244   10.3697 C.ar    1  UNL1        0.0033
      9 C          61.2889   86.7084    9.1102 C.ar    1  UNL1        0.0419
     10 C          59.3950   89.0778    6.6884 C.ar    1  UNL1        0.0349
     11 C          57.8961   89.0520    6.7396 C.ar    1  UNL1        0.0053
     12 C          57.1035   90.1193    6.0448 C.ar    1  UNL1        0.0297
     13 C          57.8098   91.2122    5.2988 C.ar    1  UNL1        0.1401
     14 F          57.0171   92.2795    4.6040 F       1  UNL1       -0.2042
     15 C          59.3086   91.2380    5.2476 C.ar    1  UNL1        0.0297
     16 C          60.1013   90.1707    5.9424 C.ar    1  UNL1        0.0053
     17 C          63.2296   84.2759   11.5731 C.ar    1  UNL1       -0.0038
     18 C          63.2951   85.1051   12.8214 C.ar    1  UNL1        0.0042
     19 C          63.8630   84.5210   14.0809 C.ar    1  UNL1        0.0533
     20 C          64.3655   83.1077   14.0921 C.ar    1  UNL1        0.0042
     21 C          64.3000   82.2785   12.8438 C.ar    1  UNL1       -0.0041
     22 C          63.7321   82.8626   11.5844 C.ar    1  UNL1       -0.0218
     23 C          63.6666   82.0334   10.3360 C.3     1  UNL1        0.0310
     24 C          63.9284   85.3502   15.3291 C.2     1  UNL1        0.2460
     25 O          64.9543   85.0442   16.3798 O.2     1  UNL1       -0.2701
     26 N          62.9681   86.4854   15.5266 N.am    1  UNL1       -0.3006
     27 H          62.2948   86.6862   14.8370 H       1  UNL1        0.1499
     28 C          63.0335   87.3146   16.7749 C.3     1  UNL1        0.0762
     29 C          62.9356   87.6915   18.2234 C.3     1  UNL1        0.0242
     30 C          62.5859   86.3002   17.7852 C.3     1  UNL1        0.0242
     31 C          63.5038   88.6169   16.1981 C.ar    1  UNL1       -0.0032
     32 C          63.2584   89.8976   16.9394 C.ar    1  UNL1        0.0179
     33 C          63.7288   91.1999   16.3625 C.ar    1  UNL1        0.0986
     34 N          64.4446   91.2216   15.0445 N.ar    1  UNL1       -0.2423
     35 C          64.6900   89.9409   14.3033 C.ar    1  UNL1        0.0986
     36 C          64.2196   88.6385   14.8801 C.ar    1  UNL1        0.0179
     37 C          59.0520   89.3947   12.2660 C.3     1  UNL1        0.1109
     38 N          59.5224   88.4178   11.2294 N.am    1  UNL1       -0.2991
     39 C          59.9914   88.9106    9.8925 C.2     1  UNL1        0.2490
     40 O          59.9900   90.3801    9.5922 O.2     1  UNL1       -0.2700
     41 H          59.5233   87.4533   11.4265 H       1  UNL1        0.1498
@<TRIPOS>BOND
     1    37    38    1
     2    38    39   am
     3    39    40    2
     4    39     1    1
     5     1     2   ar
     6     2    10    1
     7    10    11   ar
     8    11    12   ar
     9    12    13   ar
    10    13    14    1
    11    13    15   ar
    12    15    16   ar
    13     2     3   ar
    14     3     4   ar
    15     4     5   ar
    16     5     6   ar
    17     6     7   ar
    18     7    17    1
    19    17    18   ar
    20    18    19   ar
    21    19    24    1
    22    24    25    2
    23    24    26   am
    24    26    28    1
    25    28    31    1
    26    31    32   ar
    27    32    33   ar
    28    33    34   ar
    29    34    35   ar
    30    35    36   ar
    31    28    29    1
    32    29    30    1
    33    19    20   ar
    34    20    21   ar
    35    21    22   ar
    36    22    23    1
    37     7     8   ar
    38     8     9   ar
    39     9     1   ar
    40    16    10   ar
    41     9     4   ar
    42    22    17   ar
    43    30    28    1
    44    36    31   ar
    45    38    41    1
    46    26    27    1
@<TRIPOS>MOLECULE
*****
 41 46 0 0 0
SMALL
GASTEIGER

@<TRIPOS>ATOM
      1 C          61.6698   88.5719   10.2390 C.ar    1  UNL1        0.0907
      2 C          61.8783   87.1868   10.7756 C.ar    1  UNL1        0.1496
      3 O          61.1647   86.2268    9.8704 O.2     1  UNL1       -0.4533
      4 C          60.5153   87.0187    8.7744 C.ar    1  UNL1        0.1454
      5 C          59.6800   86.6072    7.5984 C.ar    1  UNL1        0.0375
      6 C          59.1568   87.6451    6.6503 C.ar    1  UNL1        0.0031
      7 C          59.4690   89.0945    6.8781 C.ar    1  UNL1       -0.0001
      8 C          60.3043   89.5059    8.0540 C.ar    1  UNL1        0.0033
      9 C          60.8274   88.4680    9.0022 C.ar    1  UNL1        0.0419
     10 C          62.6626   86.8251   12.0020 C.ar    1  UNL1        0.0349
     11 C          63.3549   87.8956   12.7922 C.ar    1  UNL1        0.0053
     12 C          64.1392   87.5339   14.0186 C.ar    1  UNL1        0.0297
     13 C          64.2312   86.1017   14.4548 C.ar    1  UNL1        0.1401
     14 F          65.0155   85.7400   15.6812 F       1  UNL1       -0.2042
     15 C          63.5388   85.0312   13.6645 C.ar    1  UNL1        0.0297
     16 C          62.7545   85.3929   12.4381 C.ar    1  UNL1        0.0053
     17 C          58.9458   90.1324    5.9298 C.ar    1  UNL1       -0.0038
     18 C          59.8997   90.9348    5.0954 C.ar    1  UNL1        0.0042
     19 C          59.3765   91.9727    4.1472 C.ar    1  UNL1        0.0533
     20 C          57.8995   92.2082    4.0334 C.ar    1  UNL1        0.0042
     21 C          56.9456   91.4057    4.8679 C.ar    1  UNL1       -0.0041
     22 C          57.4688   90.3678    5.8161 C.ar    1  UNL1       -0.0218
     23 C          56.5149   89.5654    6.6505 C.3     1  UNL1        0.0310
     24 C          60.3303   92.7752    3.3128 C.2     1  UNL1        0.2460
     25 O          60.2119   94.2697    3.2666 O.2     1  UNL1       -0.2701
     26 N          61.4026   92.0830    2.5246 N.am    1  UNL1       -0.3006
     27 H          61.4803   91.1020    2.5550 H       1  UNL1        0.1499
     28 C          62.3564   92.8854    1.6902 C.3     1  UNL1        0.0762
     29 C          63.6183   93.5727    1.2599 C.3     1  UNL1        0.0242
     30 C          63.5747   92.8326    2.5639 C.3     1  UNL1        0.0242
     31 C          61.4695   93.2169    0.5269 C.ar    1  UNL1       -0.0032
     32 C          61.5448   94.5723   -0.1113 C.ar    1  UNL1        0.0179
     33 C          60.6579   94.9038   -1.2747 C.ar    1  UNL1        0.0986
     34 N          59.6956   93.8800   -1.7999 N.ar    1  UNL1       -0.2423
     35 C          59.6203   92.5247   -1.1617 C.ar    1  UNL1        0.0986
     36 C          60.5073   92.1931    0.0017 C.ar    1  UNL1        0.0179
     37 C          63.9887   91.7313   10.8648 C.3     1  UNL1        0.1109
     38 N          63.4494   90.4646   10.2692 N.am    1  UNL1       -0.2991
     39 C          62.2090   89.8386   10.8346 C.2     1  UNL1        0.2490
     40 O          61.5080   90.4793   11.9956 O.2     1  UNL1       -0.2700
     41 H          63.9096   90.0441    9.5072 H       1  UNL1        0.1498
@<TRIPOS>BOND
     1    37    38    1
     2    38    39   am
     3    39    40    2
     4    39     1    1
     5     1     2   ar
     6     2    10    1
     7    10    11   ar
     8    11    12   ar
     9    12    13   ar
    10    13    14    1
    11    13    15   ar
    12    15    16   ar
    13     2     3   ar
    14     3     4   ar
    15     4     5   ar
    16     5     6   ar
    17     6     7   ar
    18     7    17    1
    19    17    18   ar
    20    18    19   ar
    21    19    24    1
    22    24    25    2
    23    24    26   am
    24    26    28    1
    25    28    31    1
    26    31    32   ar
    27    32    33   ar
    28    33    34   ar
    29    34    35   ar
    30    35    36   ar
    31    28    29    1
    32    29    30    1
    33    19    20   ar
    34    20    21   ar
    35    21    22   ar
    36    22    23    1
    37     7     8   ar
    38     8     9   ar
    39     9     1   ar
    40    16    10   ar
    41     9     4   ar
    42    22    17   ar
    43    30    28    1
    44    36    31   ar
    45    38    41    1
    46    26    27    1
@<TRIPOS>MOLECULE
*****
 41 46 0 0 0
SMALL
GASTEIGER

@<TRIPOS>ATOM
      1 C          63.2649   84.6101   12.1485 C.ar    1  UNL1        0.0907
      2 C          63.5694   83.2335   12.6604 C.ar    1  UNL1        0.1496
      3 O          64.2084   83.3719   14.0104 O.2     1  UNL1       -0.4533
      4 C          64.2988   84.8340   14.3329 C.ar    1  UNL1        0.1454
      5 C          64.8368   85.5674   15.5256 C.ar    1  UNL1        0.0375
      6 C          64.7916   87.0661   15.5676 C.ar    1  UNL1        0.0031
      7 C          64.2085   87.8314   14.4168 C.ar    1  UNL1       -0.0001
      8 C          63.6705   87.0980   13.2241 C.ar    1  UNL1        0.0033
      9 C          63.7157   85.5993   13.1821 C.ar    1  UNL1        0.0419
     10 C          63.2849   81.9447   11.9476 C.ar    1  UNL1        0.0349
     11 C          62.7410   80.7715   12.7075 C.ar    1  UNL1        0.0053
     12 C          62.4565   79.4827   11.9946 C.ar    1  UNL1        0.0297
     13 C          62.7158   79.3673   10.5218 C.ar    1  UNL1        0.1401
     14 F          62.4313   78.0785    9.8089 F       1  UNL1       -0.2042
     15 C          63.2598   80.5405    9.7618 C.ar    1  UNL1        0.0297
     16 C          63.5443   81.8292   10.4747 C.ar    1  UNL1        0.0053
     17 C          64.1633   89.3302   14.4588 C.ar    1  UNL1       -0.0038
     18 C          64.5567   90.1266   13.2502 C.ar    1  UNL1        0.0042
     19 C          64.5116   91.6253   13.2922 C.ar    1  UNL1        0.0533
     20 C          64.0730   92.3277   14.5430 C.ar    1  UNL1        0.0042
     21 C          63.6796   91.5312   15.7517 C.ar    1  UNL1       -0.0041
     22 C          63.7247   90.0325   15.7096 C.ar    1  UNL1       -0.0218
     23 C          63.3313   89.2360   16.9183 C.3     1  UNL1        0.0310
     24 C          64.9050   92.4217   12.0835 C.2     1  UNL1        0.2460
     25 O          64.5457   91.9308   10.7124 O.2     1  UNL1       -0.2701
     26 N          65.6576   93.7090   12.2459 N.am    1  UNL1       -0.3006
     27 H          65.8934   94.0312   13.1458 H       1  UNL1        0.1499
     28 C          66.0510   94.5054   11.0372 C.3     1  UNL1        0.0762
     29 C          66.0894   95.6216   10.0359 C.3     1  UNL1        0.0242
     30 C          65.1653   95.7030   11.2148 C.3     1  UNL1        0.0242
     31 C          67.0733   93.5845   10.4399 C.ar    1  UNL1       -0.0032
     32 C          67.7182   92.5286   11.2881 C.ar    1  UNL1        0.0179
     33 C          68.7405   91.6078   10.6907 C.ar    1  UNL1        0.0986
     34 N          69.1180   91.7427    9.2452 N.ar    1  UNL1       -0.2423
     35 C          68.4731   92.7985    8.3972 C.ar    1  UNL1        0.0986
     36 C          67.4508   93.7195    8.9945 C.ar    1  UNL1        0.0179
     37 C          62.7216   85.0224    8.2389 C.3     1  UNL1        0.1109
     38 N          63.3642   84.6928    9.5536 N.am    1  UNL1       -0.2991
     39 C          62.6224   84.9398   10.8338 C.2     1  UNL1        0.2490
     40 O          61.2381   85.5163   10.7991 O.2     1  UNL1       -0.2700
     41 H          64.2728   84.3143    9.5763 H       1  UNL1        0.1498
@<TRIPOS>BOND
     1    37    38    1
     2    38    39   am
     3    39    40    2
     4    39     1    1
     5     1     2   ar
     6     2    10    1
     7    10    11   ar
     8    11    12   ar
     9    12    13   ar
    10    13    14    1
    11    13    15   ar
    12    15    16   ar
    13     2     3   ar
    14     3     4   ar
    15     4     5   ar
    16     5     6   ar
    17     6     7   ar
    18     7    17    1
    19    17    18   ar
    20    18    19   ar
    21    19    24    1
    22    24    25    2
    23    24    26   am
    24    26    28    1
    25    28    31    1
    26    31    32   ar
    27    32    33   ar
    28    33    34   ar
    29    34    35   ar
    30    35    36   ar
    31    28    29    1
    32    29    30    1
    33    19    20   ar
    34    20    21   ar
    35    21    22   ar
    36    22    23    1
    37     7     8   ar
    38     8     9   ar
    39     9     1   ar
    40    16    10   ar
    41     9     4   ar
    42    22    17   ar
    43    30    28    1
    44    36    31   ar
    45    38    41    1
    46    26    27    1
@<TRIPOS>MOLECULE
*****
 41 46 0 0 0
SMALL
GASTEIGER

@<TRIPOS>ATOM
      1 C          62.3122   85.8966    9.4232 C.ar    1  UNL1        0.0907
      2 C          62.6367   84.7012    8.5771 C.ar    1  UNL1        0.1496
      3 O          63.3668   83.7106    9.4349 O.2     1  UNL1       -0.4533
      4 C          63.4935   84.2937   10.8111 C.ar    1  UNL1        0.1454
      5 C          64.1181   83.7691   12.0698 C.ar    1  UNL1        0.0375
      6 C          64.0910   84.5954   13.3214 C.ar    1  UNL1        0.0031
      7 C          63.4393   85.9464   13.3141 C.ar    1  UNL1       -0.0001
      8 C          62.8146   86.4711   12.0554 C.ar    1  UNL1        0.0033
      9 C          62.8417   85.6447   10.8038 C.ar    1  UNL1        0.0419
     10 C          62.2917   84.5270    7.1277 C.ar    1  UNL1        0.0349
     11 C          60.9202   84.0652    6.7335 C.ar    1  UNL1        0.0053
     12 C          60.5752   83.8911    5.2841 C.ar    1  UNL1        0.0297
     13 C          61.6018   84.1787    4.2290 C.ar    1  UNL1        0.1401
     14 F          61.2568   84.0045    2.7796 F       1  UNL1       -0.2042
     15 C          62.9733   84.6405    4.6232 C.ar    1  UNL1        0.0297
     16 C          63.3183   84.8147    6.0726 C.ar    1  UNL1        0.0053
     17 C          63.4122   86.7727   14.5658 C.ar    1  UNL1       -0.0038
     18 C          63.8671   88.2016   14.5311 C.ar    1  UNL1        0.0042
     19 C          63.8400   89.0280   15.7827 C.ar    1  UNL1        0.0533
     20 C          63.3580   88.4253   17.0690 C.ar    1  UNL1        0.0042
     21 C          62.9030   86.9964   17.1036 C.ar    1  UNL1       -0.0041
     22 C          62.9301   86.1701   15.8520 C.ar    1  UNL1       -0.0218
     23 C          62.4751   84.7411   15.8867 C.3     1  UNL1        0.0310
     24 C          64.2950   90.4569   15.7481 C.2     1  UNL1        0.2460
     25 O          63.5434   91.5021   16.5178 O.2     1  UNL1       -0.2701
     26 N          65.5015   90.8405   14.9437 N.am    1  UNL1       -0.3006
     27 H          65.9948   90.1545   14.4385 H       1  UNL1        0.1499
     28 C          65.9565   92.2694   14.9090 C.3     1  UNL1        0.0762
     29 C          66.4896   93.5907   15.3780 C.3     1  UNL1        0.0242
     30 C          66.3397   92.4557   16.3472 C.3     1  UNL1        0.0242
     31 C          65.7312   92.5794   13.4588 C.ar    1  UNL1       -0.0032
     32 C          66.3910   93.7739   12.8359 C.ar    1  UNL1        0.0179
     33 C          66.1657   94.0838   11.3857 C.ar    1  UNL1        0.0986
     34 N          65.2807   93.1993   10.5583 N.ar    1  UNL1       -0.2423
     35 C          64.6210   92.0050   11.1812 C.ar    1  UNL1        0.0986
     36 C          64.8462   91.6950   12.6315 C.ar    1  UNL1        0.0179
     37 C          59.6134   88.2323    7.6880 C.3     1  UNL1        0.1109
     38 N          60.3398   87.0013    8.1427 N.am    1  UNL1       -0.2991
     39 C          61.5858   87.1276    8.9685 C.2     1  UNL1        0.2490
     40 O          62.1052   88.4850    9.3394 O.2     1  UNL1       -0.2700
     41 H          59.9989   86.1103    7.8992 H       1  UNL1        0.1498
@<TRIPOS>BOND
     1    37    38    1
     2    38    39   am
     3    39    40    2
     4    39     1    1
     5     1     2   ar
     6     2    10    1
     7    10    11   ar
     8    11    12   ar
     9    12    13   ar
    10    13    14    1
    11    13    15   ar
    12    15    16   ar
    13     2     3   ar
    14     3     4   ar
    15     4     5   ar
    16     5     6   ar
    17     6     7   ar
    18     7    17    1
    19    17    18   ar
    20    18    19   ar
    21    19    24    1
    22    24    25    2
    23    24    26   am
    24    26    28    1
    25    28    31    1
    26    31    32   ar
    27    32    33   ar
    28    33    34   ar
    29    34    35   ar
    30    35    36   ar
    31    28    29    1
    32    29    30    1
    33    19    20   ar
    34    20    21   ar
    35    21    22   ar
    36    22    23    1
    37     7     8   ar
    38     8     9   ar
    39     9     1   ar
    40    16    10   ar
    41     9     4   ar
    42    22    17   ar
    43    30    28    1
    44    36    31   ar
    45    38    41    1
    46    26    27    1
