@<TRIPOS>MOLECULE
*****
 35 37 0 0 0
SMALL
GASTEIGER

@<TRIPOS>ATOM
      1 C          63.8839   86.9979   13.6511 C.ar    1  UNL1        0.0520
      2 C          63.0236   86.5082   12.5241 C.ar    1  UNL1        0.0261
      3 C          62.6259   85.0634   12.4572 C.ar    1  UNL1        0.0598
      4 CL         61.7656   84.5737   11.3303 Cl      1  UNL1       -0.0822
      5 C          63.0887   84.1083   13.5172 C.ar    1  UNL1        0.0242
      6 C          63.9491   84.5980   14.6442 C.ar    1  UNL1        0.0598
      7 CL         64.4118   83.6429   15.7042 Cl      1  UNL1       -0.0822
      8 C          64.3466   86.0428   14.7111 C.ar    1  UNL1        0.0261
      9 C          62.6911   82.6635   13.4503 C.ar    1  UNL1        0.0359
     10 C          61.5471   82.1613   14.2803 C.ar    1  UNL1        0.0031
     11 C          61.1494   80.7165   14.2134 C.ar    1  UNL1        0.0002
     12 C          61.8959   79.7739   13.3165 C.ar    1  UNL1        0.0031
     13 C          63.0400   80.2762   12.4865 C.ar    1  UNL1        0.0372
     14 C          63.4376   81.7210   12.5535 C.ar    1  UNL1        0.1468
     15 O          64.5817   82.2232   11.7235 O.3     1  UNL1       -0.4045
     16 C          64.3188   82.8604   10.3913 C.3     1  UNL1        0.5753
     17 F          64.0560   83.4976    9.0590 F       1  UNL1       -0.1328
     18 F          63.4497   81.6997   10.0076 F       1  UNL1       -0.1328
     19 F          65.1880   84.0211   10.7750 F       1  UNL1       -0.1328
     20 C          63.8981   89.2718   14.9079 C.2     1  UNL1        0.2305
     21 O          63.1170   88.6559   16.0307 O.2     1  UNL1       -0.2744
     22 N          64.2815   88.4427   13.7180 N.am    1  UNL1       -0.2836
     23 H          64.7941   88.8469   12.9811 H       1  UNL1        0.1549
     24 C          64.2956   90.7165   14.9749 C.3     1  UNL1        0.1116
     25 C          66.4778   92.6120   11.5259 C.ar    1  UNL1        0.1056
     26 C          65.0313   92.2407   11.3852 C.ar    1  UNL1        0.0180
     27 C          64.3040   91.6088   12.5349 C.ar    1  UNL1       -0.0025
     28 C          65.0230   91.3483   13.8252 C.ar    1  UNL1       -0.0130
     29 C          66.4695   91.7197   13.9659 C.ar    1  UNL1       -0.0025
     30 C          67.1969   92.3515   12.8162 C.ar    1  UNL1        0.0180
     31 S          67.2052   93.2438   10.3762 S.O2    1  UNL1        0.0087
     32 O          66.0443   94.1661   10.1486 O.2     1  UNL1       -0.1686
     33 O          68.3660   92.3215   10.6038 O.2     1  UNL1       -0.1686
     34 C          67.6161   95.2850    8.8224 C.3     1  UNL1        0.0276
     35 C          67.9326   93.8756    9.2266 C.3     1  UNL1        0.1560
@<TRIPOS>BOND
     1    34    35    1
     2    35    31    1
     3    31    32    2
     4    31    33    2
     5    31    25    1
     6    25    26   ar
     7    26    27   ar
     8    27    28   ar
     9    28    24    1
    10    24    20    1
    11    20    21    2
    12    20    22   am
    13    22     1    1
    14     1     2   ar
    15     2     3   ar
    16     3     4    1
    17     3     5   ar
    18     5     9    1
    19     9    10   ar
    20    10    11   ar
    21    11    12   ar
    22    12    13   ar
    23    13    14   ar
    24    14    15    1
    25    15    16    1
    26    16    17    1
    27    16    18    1
    28    16    19    1
    29     5     6   ar
    30     6     7    1
    31     6     8   ar
    32    28    29   ar
    33    29    30   ar
    34    30    25   ar
    35     8     1   ar
    36    14     9   ar
    37    22    23    1
@<TRIPOS>MOLECULE
*****
 35 37 0 0 0
SMALL
GASTEIGER

@<TRIPOS>ATOM
      1 C          64.8683   90.6275   13.9811 C.ar    1  UNL1        0.0520
      2 C          65.8898   91.5695   14.5460 C.ar    1  UNL1        0.0261
      3 C          66.3150   92.7742   13.7599 C.ar    1  UNL1        0.0598
      4 CL         67.3365   93.7161   14.3248 Cl      1  UNL1       -0.0822
      5 C          65.7187   93.0369   12.4088 C.ar    1  UNL1        0.0242
      6 C          64.6971   92.0949   11.8439 C.ar    1  UNL1        0.0598
      7 CL         64.1007   92.3576   10.4928 Cl      1  UNL1       -0.0822
      8 C          64.2719   90.8902   12.6300 C.ar    1  UNL1        0.0261
      9 C          66.1438   94.2415   11.6227 C.ar    1  UNL1        0.0359
     10 C          65.8343   95.6176   12.1331 C.ar    1  UNL1        0.0031
     11 C          66.2595   96.8223   11.3469 C.ar    1  UNL1        0.0002
     12 C          66.9942   96.6509   10.0504 C.ar    1  UNL1        0.0031
     13 C          67.3037   95.2747    9.5401 C.ar    1  UNL1        0.0372
     14 C          66.8785   94.0700   10.3262 C.ar    1  UNL1        0.1468
     15 O          67.1880   92.6939    9.8159 O.3     1  UNL1       -0.4045
     16 C          68.5542   92.3822    9.2807 C.3     1  UNL1        0.5753
     17 F          69.9203   92.0704    8.7455 F       1  UNL1       -0.1328
     18 F          68.2073   93.0709    7.9941 F       1  UNL1       -0.1328
     19 F          68.9010   91.6934   10.5673 F       1  UNL1       -0.1328
     20 C          63.6379   89.5917   16.0215 C.2     1  UNL1        0.2305
     21 O          63.2580   90.9652   16.4897 O.2     1  UNL1       -0.2744
     22 N          64.4430   89.4228   14.7672 N.am    1  UNL1       -0.2836
     23 H          64.6924   88.5214   14.4599 H       1  UNL1        0.1549
     24 C          63.2127   88.3871   16.8076 C.3     1  UNL1        0.1116
     25 C          63.4739   84.2902   14.9644 C.ar    1  UNL1        0.1056
     26 C          64.3958   85.3800   14.5038 C.ar    1  UNL1        0.0180
     27 C          64.3088   86.7456   15.1182 C.ar    1  UNL1       -0.0025
     28 C          63.2997   87.0214   16.1932 C.ar    1  UNL1       -0.0130
     29 C          62.3778   85.9316   16.6538 C.ar    1  UNL1       -0.0025
     30 C          62.4648   84.5660   16.0394 C.ar    1  UNL1        0.0180
     31 S          63.5609   82.9246   14.3499 S.O2    1  UNL1        0.0087
     32 O          62.4568   82.4503   15.2476 O.2     1  UNL1       -0.1686
     33 O          64.6651   83.3989   13.4522 O.2     1  UNL1       -0.1686
     34 C          62.4071   80.8817   13.2341 C.3     1  UNL1        0.0276
     35 C          63.6480   81.5590   13.7355 C.3     1  UNL1        0.1560
@<TRIPOS>BOND
     1    34    35    1
     2    35    31    1
     3    31    32    2
     4    31    33    2
     5    31    25    1
     6    25    26   ar
     7    26    27   ar
     8    27    28   ar
     9    28    24    1
    10    24    20    1
    11    20    21    2
    12    20    22   am
    13    22     1    1
    14     1     2   ar
    15     2     3   ar
    16     3     4    1
    17     3     5   ar
    18     5     9    1
    19     9    10   ar
    20    10    11   ar
    21    11    12   ar
    22    12    13   ar
    23    13    14   ar
    24    14    15    1
    25    15    16    1
    26    16    17    1
    27    16    18    1
    28    16    19    1
    29     5     6   ar
    30     6     7    1
    31     6     8   ar
    32    28    29   ar
    33    29    30   ar
    34    30    25   ar
    35     8     1   ar
    36    14     9   ar
    37    22    23    1
@<TRIPOS>MOLECULE
*****
 35 37 0 0 0
SMALL
GASTEIGER

@<TRIPOS>ATOM
      1 C          60.9074   91.5411    4.2776 C.ar    1  UNL1        0.0520
      2 C          60.0842   92.6589    3.7096 C.ar    1  UNL1        0.0261
      3 C          60.6363   93.5109    2.6053 C.ar    1  UNL1        0.0598
      4 CL         59.8131   94.6287    2.0373 Cl      1  UNL1       -0.0822
      5 C          62.0117   93.2450    2.0691 C.ar    1  UNL1        0.0242
      6 C          62.8350   92.1271    2.6372 C.ar    1  UNL1        0.0598
      7 CL         64.2104   91.8611    2.1009 Cl      1  UNL1       -0.0822
      8 C          62.2828   91.2752    3.7413 C.ar    1  UNL1        0.0261
      9 C          62.5639   94.0969    0.9649 C.ar    1  UNL1        0.0359
     10 C          63.3552   95.3284    1.2920 C.ar    1  UNL1        0.0031
     11 C          63.9075   96.1804    0.1878 C.ar    1  UNL1        0.0002
     12 C          63.6683   95.8008   -1.2435 C.ar    1  UNL1        0.0031
     13 C          62.8769   94.5692   -1.5706 C.ar    1  UNL1        0.0372
     14 C          62.3248   93.7173   -0.4664 C.ar    1  UNL1        0.1468
     15 O          61.5334   92.4857   -0.7935 O.3     1  UNL1       -0.4045
     16 C          60.0343   92.5359   -0.7949 C.3     1  UNL1        0.5753
     17 F          58.5351   92.5860   -0.7962 F       1  UNL1       -0.1328
     18 F          60.0759   93.7588   -1.6625 F       1  UNL1       -0.1328
     19 F          59.9926   91.3130    0.0728 F       1  UNL1       -0.1328
     20 C          58.8723   90.5955    5.5868 C.2     1  UNL1        0.2305
     21 O          57.9415   91.3538    4.6876 O.2     1  UNL1       -0.2744
     22 N          60.3553   90.6891    5.3818 N.am    1  UNL1       -0.2836
     23 H          60.9662   90.1914    5.9720 H       1  UNL1        0.1549
     24 C          58.3201   89.7435    6.6910 C.3     1  UNL1        0.1116
     25 C          61.0273   86.9349    8.9344 C.ar    1  UNL1        0.1056
     26 C          61.0093   88.3946    9.2792 C.ar    1  UNL1        0.0180
     27 C          60.1069   89.3308    8.5314 C.ar    1  UNL1       -0.0025
     28 C          59.2225   88.8073    7.4388 C.ar    1  UNL1       -0.0130
     29 C          59.2405   87.3476    7.0940 C.ar    1  UNL1       -0.0025
     30 C          60.1429   86.4114    7.8418 C.ar    1  UNL1        0.0180
     31 S          61.9297   85.9987    9.6822 S.O2    1  UNL1        0.0087
     32 O          62.7146   85.7533    8.4277 O.2     1  UNL1       -0.1686
     33 O          61.1448   86.2441   10.9366 O.2     1  UNL1       -0.1686
     34 C          62.6411   84.8532   11.9029 C.3     1  UNL1        0.0276
     35 C          62.8321   85.0625   10.4300 C.3     1  UNL1        0.1560
@<TRIPOS>BOND
     1    34    35    1
     2    35    31    1
     3    31    32    2
     4    31    33    2
     5    31    25    1
     6    25    26   ar
     7    26    27   ar
     8    27    28   ar
     9    28    24    1
    10    24    20    1
    11    20    21    2
    12    20    22   am
    13    22     1    1
    14     1     2   ar
    15     2     3   ar
    16     3     4    1
    17     3     5   ar
    18     5     9    1
    19     9    10   ar
    20    10    11   ar
    21    11    12   ar
    22    12    13   ar
    23    13    14   ar
    24    14    15    1
    25    15    16    1
    26    16    17    1
    27    16    18    1
    28    16    19    1
    29     5     6   ar
    30     6     7    1
    31     6     8   ar
    32    28    29   ar
    33    29    30   ar
    34    30    25   ar
    35     8     1   ar
    36    14     9   ar
    37    22    23    1
@<TRIPOS>MOLECULE
*****
 35 37 0 0 0
SMALL
GASTEIGER

@<TRIPOS>ATOM
      1 C          60.9124   91.5568    4.2868 C.ar    1  UNL1        0.0520
      2 C          62.2900   91.2903    3.7566 C.ar    1  UNL1        0.0261
      3 C          62.8426   92.1342    2.6464 C.ar    1  UNL1        0.0598
      4 CL         64.2202   91.8677    2.1162 Cl      1  UNL1       -0.0822
      5 C          62.0175   93.2445    2.0664 C.ar    1  UNL1        0.0242
      6 C          60.6399   93.5110    2.5966 C.ar    1  UNL1        0.0598
      7 CL         59.8148   94.6213    2.0166 Cl      1  UNL1       -0.0822
      8 C          60.0873   92.6671    3.7068 C.ar    1  UNL1        0.0261
      9 C          62.5701   94.0884    0.9562 C.ar    1  UNL1        0.0359
     10 C          63.3546   95.3265    1.2746 C.ar    1  UNL1        0.0031
     11 C          63.9072   96.1705    0.1644 C.ar    1  UNL1        0.0002
     12 C          63.6752   95.7762   -1.2642 C.ar    1  UNL1        0.0031
     13 C          62.8906   94.5380   -1.5825 C.ar    1  UNL1        0.0372
     14 C          62.3381   93.6941   -0.4723 C.ar    1  UNL1        0.1468
     15 O          61.5535   92.4559   -0.7907 O.3     1  UNL1       -0.4045
     16 C          60.0541   92.4968   -0.7881 C.3     1  UNL1        0.5753
     17 F          58.5547   92.5376   -0.7854 F       1  UNL1       -0.1328
     18 F          60.0854   93.7042   -1.6776 F       1  UNL1       -0.1328
     19 F          60.0228   91.2894    0.1015 F       1  UNL1       -0.1328
     20 C          58.8761   90.6046    5.5895 C.2     1  UNL1        0.2305
     21 O          57.9451   91.3402    4.6718 O.2     1  UNL1       -0.2744
     22 N          60.3597   90.7129    5.3970 N.am    1  UNL1       -0.2836
     23 H          60.9708   90.2301    5.9993 H       1  UNL1        0.1549
     24 C          58.3235   89.7608    6.6997 C.3     1  UNL1        0.1116
     25 C          61.0199   86.9347    8.9340 C.ar    1  UNL1        0.1056
     26 C          60.1532   86.4228    7.8220 C.ar    1  UNL1        0.0180
     27 C          59.2544   87.3648    7.0772 C.ar    1  UNL1       -0.0025
     28 C          59.2223   88.8188    7.4445 C.ar    1  UNL1       -0.0130
     29 C          60.0890   89.3307    8.5565 C.ar    1  UNL1       -0.0025
     30 C          60.9878   88.3887    9.3013 C.ar    1  UNL1        0.0180
     31 S          61.9188   85.9927    9.6788 S.O2    1  UNL1        0.0087
     32 O          61.1613   86.2699   10.9435 O.2     1  UNL1       -0.1686
     33 O          62.6762   85.7155    8.4141 O.2     1  UNL1       -0.1686
     34 C          62.6319   84.8446   11.8977 C.3     1  UNL1        0.0276
     35 C          62.8176   85.0506   10.4236 C.3     1  UNL1        0.1560
@<TRIPOS>BOND
     1    34    35    1
     2    35    31    1
     3    31    32    2
     4    31    33    2
     5    31    25    1
     6    25    26   ar
     7    26    27   ar
     8    27    28   ar
     9    28    24    1
    10    24    20    1
    11    20    21    2
    12    20    22   am
    13    22     1    1
    14     1     2   ar
    15     2     3   ar
    16     3     4    1
    17     3     5   ar
    18     5     9    1
    19     9    10   ar
    20    10    11   ar
    21    11    12   ar
    22    12    13   ar
    23    13    14   ar
    24    14    15    1
    25    15    16    1
    26    16    17    1
    27    16    18    1
    28    16    19    1
    29     5     6   ar
    30     6     7    1
    31     6     8   ar
    32    28    29   ar
    33    29    30   ar
    34    30    25   ar
    35     8     1   ar
    36    14     9   ar
    37    22    23    1
