@<TRIPOS>MOLECULE
*****
 23 25 0 0 0
SMALL
GASTEIGER

@<TRIPOS>ATOM
      1 C          63.6013   85.5893   13.1944 C.ar    1  UNL1       -0.0159
      2 C          63.2443   84.1535   12.9479 C.ar    1  UNL1        0.0050
      3 S          62.3778   84.0948   11.7248 S.2     1  UNL1       -0.0915
      4 C          62.1993   85.4943   11.2156 C.ar    1  UNL1        0.0288
      5 C          61.4459   86.0470   10.0422 C.ar    1  UNL1        0.0065
      6 C          61.4487   87.5233    9.7770 C.ar    1  UNL1        0.0005
      7 C          62.2048   88.4470   10.6853 C.ar    1  UNL1        0.0000
      8 C          62.9582   87.8944   11.8587 C.ar    1  UNL1        0.0002
      9 C          62.9555   86.4181   12.1239 C.ar    1  UNL1        0.0025
     10 C          64.4543   86.1059   14.3149 C.3     1  UNL1        0.0459
     11 C          65.7232   85.3943   14.6810 C.3     1  UNL1        0.0094
     12 C          62.9448   85.8428   16.8941 C.3     1  UNL1        0.0518
     13 C          63.2840   87.2023   16.3589 C.ar    1  UNL1        0.0557
     14 N          62.8684   88.4304   17.1133 N.ar    1  UNL1       -0.2484
     15 C          63.2076   89.7900   16.5782 C.ar    1  UNL1        0.0984
     16 C          63.9623   89.9216   15.2886 C.ar    1  UNL1        0.0203
     17 C          64.3779   88.6935   14.5342 C.ar    1  UNL1       -0.0012
     18 C          64.0388   87.3338   15.0693 C.ar    1  UNL1       -0.0048
     19 C          63.6777   82.9820   13.7784 C.3     1  UNL1        0.0499
     20 C          62.6549   82.1524   14.4965 C.3     1  UNL1        0.0774
     21 N          61.9451   81.0460   13.7740 N.3     1  UNL1       -0.2700
     22 C          62.6460   80.2921   12.6829 C.3     1  UNL1        0.0897
     23 C          60.5345   80.6935   14.1426 C.3     1  UNL1        0.0897
@<TRIPOS>BOND
     1    12    13    1
     2    13    14   ar
     3    14    15   ar
     4    15    16   ar
     5    16    17   ar
     6    17    18   ar
     7    18    10    1
     8    10    11    1
     9    10     1    1
    10     1     2   ar
    11     2    19    1
    12    19    20    1
    13    20    21    1
    14    21    22    1
    15    21    23    1
    16     2     3   ar
    17     3     4   ar
    18     4     5   ar
    19     5     6   ar
    20     6     7   ar
    21     7     8   ar
    22     8     9   ar
    23    18    13   ar
    24     9     1   ar
    25     9     4   ar
@<TRIPOS>MOLECULE
*****
 23 25 0 0 0
SMALL
GASTEIGER

@<TRIPOS>ATOM
      1 C          61.5231   88.2286   10.8613 C.ar    1  UNL1       -0.0159
      2 C          62.2641   86.9749   11.2206 C.ar    1  UNL1        0.0050
      3 S          61.9891   85.9532   10.1574 S.2     1  UNL1       -0.0915
      4 C          61.0781   86.5754    9.1410 C.ar    1  UNL1        0.0288
      5 C          60.4737   86.0430    7.8756 C.ar    1  UNL1        0.0065
      6 C          59.5813   86.9171    7.0452 C.ar    1  UNL1        0.0005
      7 C          59.2932   88.3234    7.4803 C.ar    1  UNL1        0.0000
      8 C          59.8977   88.8557    8.7456 C.ar    1  UNL1        0.0002
      9 C          60.7901   87.9817    9.5760 C.ar    1  UNL1        0.0025
     10 C          61.5162   89.5052   11.6489 C.3     1  UNL1        0.0459
     11 C          60.3052   89.8872   12.4476 C.3     1  UNL1        0.0094
     12 C          63.1154   89.8990   14.1564 C.3     1  UNL1        0.0518
     13 C          63.5197   90.5967   12.8916 C.ar    1  UNL1        0.0557
     14 N          64.7237   91.4913   12.8806 N.ar    1  UNL1       -0.2484
     15 C          65.1281   92.1890   11.6159 C.ar    1  UNL1        0.0984
     16 C          64.3285   91.9922   10.3620 C.ar    1  UNL1        0.0203
     17 C          63.1246   91.0975   10.3731 C.ar    1  UNL1       -0.0012
     18 C          62.7201   90.3998   11.6379 C.ar    1  UNL1       -0.0048
     19 C          63.1283   86.7776   12.4306 C.3     1  UNL1        0.0499
     20 C          63.2771   85.4113   13.0313 C.3     1  UNL1        0.0774
     21 N          63.3627   85.2518   14.5203 N.3     1  UNL1       -0.2700
     22 C          62.5700   84.1790   15.2065 C.3     1  UNL1        0.0897
     23 C          64.2409   86.1651   15.3231 C.3     1  UNL1        0.0897
@<TRIPOS>BOND
     1    12    13    1
     2    13    14   ar
     3    14    15   ar
     4    15    16   ar
     5    16    17   ar
     6    17    18   ar
     7    18    10    1
     8    10    11    1
     9    10     1    1
    10     1     2   ar
    11     2    19    1
    12    19    20    1
    13    20    21    1
    14    21    22    1
    15    21    23    1
    16     2     3   ar
    17     3     4   ar
    18     4     5   ar
    19     5     6   ar
    20     6     7   ar
    21     7     8   ar
    22     8     9   ar
    23    18    13   ar
    24     9     1   ar
    25     9     4   ar
@<TRIPOS>MOLECULE
*****
 23 25 0 0 0
SMALL
GASTEIGER

@<TRIPOS>ATOM
      1 C          63.3222   88.8616   12.4040 C.ar    1  UNL1       -0.0159
      2 C          63.8803   89.7721   13.4573 C.ar    1  UNL1        0.0050
      3 S          64.3412   88.9245   14.6059 S.2     1  UNL1       -0.0915
      4 C          64.0679   87.4901   14.2624 C.ar    1  UNL1        0.0288
      5 C          64.3111   86.2144   15.0130 C.ar    1  UNL1        0.0065
      6 C          63.9246   84.8999   14.4027 C.ar    1  UNL1        0.0005
      7 C          63.2949   84.8610   13.0418 C.ar    1  UNL1        0.0000
      8 C          63.0516   86.1367   12.2913 C.ar    1  UNL1        0.0002
      9 C          63.4382   87.4512   12.9015 C.ar    1  UNL1        0.0025
     10 C          62.7489   89.2867   11.0847 C.3     1  UNL1        0.0459
     11 C          63.0769   90.6394   10.5253 C.3     1  UNL1        0.0094
     12 C          59.7766   89.4403   11.4618 C.3     1  UNL1        0.0518
     13 C          60.3614   88.4362   10.5133 C.ar    1  UNL1        0.0557
     14 N          59.4601   87.5088    9.7534 N.ar    1  UNL1       -0.2484
     15 C          60.0449   86.5046    8.8049 C.ar    1  UNL1        0.0984
     16 C          61.5310   86.4278    8.6163 C.ar    1  UNL1        0.0203
     17 C          62.4323   87.3552    9.3763 C.ar    1  UNL1       -0.0012
     18 C          61.8476   88.3594   10.3248 C.ar    1  UNL1       -0.0048
     19 C          63.9631   91.2676   13.3763 C.3     1  UNL1        0.0499
     20 C          65.2924   91.9361   13.1867 C.3     1  UNL1        0.0774
     21 N          65.8890   92.7479   14.2980 N.3     1  UNL1       -0.2700
     22 C          65.7101   92.3145   15.7229 C.3     1  UNL1        0.0897
     23 C          66.6644   93.9930   13.9845 C.3     1  UNL1        0.0897
@<TRIPOS>BOND
     1    12    13    1
     2    13    14   ar
     3    14    15   ar
     4    15    16   ar
     5    16    17   ar
     6    17    18   ar
     7    18    10    1
     8    10    11    1
     9    10     1    1
    10     1     2   ar
    11     2    19    1
    12    19    20    1
    13    20    21    1
    14    21    22    1
    15    21    23    1
    16     2     3   ar
    17     3     4   ar
    18     4     5   ar
    19     5     6   ar
    20     6     7   ar
    21     7     8   ar
    22     8     9   ar
    23    18    13   ar
    24     9     1   ar
    25     9     4   ar
@<TRIPOS>MOLECULE
*****
 23 25 0 0 0
SMALL
GASTEIGER

@<TRIPOS>ATOM
      1 C          63.4046   87.0456   12.8902 C.ar    1  UNL1       -0.0159
      2 C          63.6052   88.5123   13.1319 C.ar    1  UNL1        0.0050
      3 S          62.9044   89.2624   12.0383 S.2     1  UNL1       -0.0915
      4 C          62.2706   88.2593   11.1206 C.ar    1  UNL1        0.0288
      5 C          61.4520   88.4165    9.8736 C.ar    1  UNL1        0.0065
      6 C          60.9425   87.2035    9.1531 C.ar    1  UNL1        0.0005
      7 C          61.2516   85.8334    9.6796 C.ar    1  UNL1        0.0000
      8 C          62.0703   85.6763   10.9266 C.ar    1  UNL1        0.0002
      9 C          62.5797   86.8892   11.6471 C.ar    1  UNL1        0.0025
     10 C          63.9355   85.9309   13.7420 C.3     1  UNL1        0.0459
     11 C          64.7647   86.2418   14.9528 C.3     1  UNL1        0.0094
     12 C          61.8888   84.3880   15.3010 C.3     1  UNL1        0.0518
     13 C          62.6141   83.7339   14.1626 C.ar    1  UNL1        0.0557
     14 N          62.3160   82.3083   13.8036 N.ar    1  UNL1       -0.2484
     15 C          63.0413   81.6541   12.6652 C.ar    1  UNL1        0.0984
     16 C          64.0646   82.4255   11.8856 C.ar    1  UNL1        0.0203
     17 C          64.3627   83.8511   12.2446 C.ar    1  UNL1       -0.0012
     18 C          63.6374   84.5054   13.3831 C.ar    1  UNL1       -0.0048
     19 C          64.3720   89.1219   14.2679 C.3     1  UNL1        0.0499
     20 C          64.0901   90.5330   14.6914 C.3     1  UNL1        0.0774
     21 N          65.0757   91.6203   14.3809 N.3     1  UNL1       -0.2700
     22 C          65.8688   92.2517   15.4865 C.3     1  UNL1        0.0897
     23 C          65.2681   92.0762   12.9649 C.3     1  UNL1        0.0897
@<TRIPOS>BOND
     1    12    13    1
     2    13    14   ar
     3    14    15   ar
     4    15    16   ar
     5    16    17   ar
     6    17    18   ar
     7    18    10    1
     8    10    11    1
     9    10     1    1
    10     1     2   ar
    11     2    19    1
    12    19    20    1
    13    20    21    1
    14    21    22    1
    15    21    23    1
    16     2     3   ar
    17     3     4   ar
    18     4     5   ar
    19     5     6   ar
    20     6     7   ar
    21     7     8   ar
    22     8     9   ar
    23    18    13   ar
    24     9     1   ar
    25     9     4   ar
@<TRIPOS>MOLECULE
*****
 23 25 0 0 0
SMALL
GASTEIGER

@<TRIPOS>ATOM
      1 C          63.4938   86.9736   13.0223 C.ar    1  UNL1       -0.0159
      2 C          62.6058   86.9835   11.8134 C.ar    1  UNL1        0.0050
      3 S          62.4036   88.4108   11.3986 S.2     1  UNL1       -0.0915
      4 C          63.1666   89.2829   12.3510 C.ar    1  UNL1        0.0288
      5 C          63.3349   90.7711   12.4342 C.ar    1  UNL1        0.0065
      6 C          64.1769   91.3711   13.5208 C.ar    1  UNL1        0.0005
      7 C          64.8507   90.4829   14.5244 C.ar    1  UNL1        0.0000
      8 C          64.6824   88.9947   14.4413 C.ar    1  UNL1        0.0002
      9 C          63.8404   88.3947   13.3546 C.ar    1  UNL1        0.0025
     10 C          63.9543   85.7563   13.7680 C.3     1  UNL1        0.0459
     11 C          64.7349   85.9068   15.0402 C.3     1  UNL1        0.0094
     12 C          61.8746   84.0748   15.1272 C.3     1  UNL1        0.0518
     13 C          62.5945   83.5479   13.9214 C.ar    1  UNL1        0.0557
     14 N          62.2746   82.1802   13.3951 N.ar    1  UNL1       -0.2484
     15 C          62.9945   81.6532   12.1892 C.ar    1  UNL1        0.0984
     16 C          64.0343   82.4940   11.5096 C.ar    1  UNL1        0.0203
     17 C          64.3542   83.8617   12.0359 C.ar    1  UNL1       -0.0012
     18 C          63.6344   84.3887   13.2418 C.ar    1  UNL1       -0.0048
     19 C          62.0225   85.7779   11.1380 C.3     1  UNL1        0.0499
     20 C          61.0457   85.9480   10.0124 C.3     1  UNL1        0.0774
     21 N          61.4965   85.7628    8.5938 N.3     1  UNL1       -0.2700
     22 C          60.5175   85.9234    7.4687 C.3     1  UNL1        0.0897
     23 C          62.9263   85.4171    8.3002 C.3     1  UNL1        0.0897
@<TRIPOS>BOND
     1    12    13    1
     2    13    14   ar
     3    14    15   ar
     4    15    16   ar
     5    16    17   ar
     6    17    18   ar
     7    18    10    1
     8    10    11    1
     9    10     1    1
    10     1     2   ar
    11     2    19    1
    12    19    20    1
    13    20    21    1
    14    21    22    1
    15    21    23    1
    16     2     3   ar
    17     3     4   ar
    18     4     5   ar
    19     5     6   ar
    20     6     7   ar
    21     7     8   ar
    22     8     9   ar
    23    18    13   ar
    24     9     1   ar
    25     9     4   ar
@<TRIPOS>MOLECULE
*****
 23 25 0 0 0
SMALL
GASTEIGER

@<TRIPOS>ATOM
      1 C          62.4778   87.2349   11.3013 C.ar    1  UNL1       -0.0159
      2 C          63.1000   88.1947   12.2717 C.ar    1  UNL1        0.0050
      3 S          63.6798   87.3989   13.4033 S.2     1  UNL1       -0.0915
      4 C          63.4159   85.9474   13.1323 C.ar    1  UNL1        0.0288
      5 C          63.7561   84.7049   13.9006 C.ar    1  UNL1        0.0065
      6 C          63.3534   83.3610   13.3698 C.ar    1  UNL1        0.0005
      7 C          62.6105   83.2597   12.0706 C.ar    1  UNL1        0.0000
      8 C          62.2703   84.5022   11.3023 C.ar    1  UNL1        0.0002
      9 C          62.6730   85.8460   11.8331 C.ar    1  UNL1        0.0025
     10 C          61.7824   87.6000   10.0233 C.3     1  UNL1        0.0459
     11 C          61.1691   88.9598    9.8651 C.3     1  UNL1        0.0094
     12 C          59.1590   87.0884    8.6608 C.3     1  UNL1        0.0518
     13 C          60.3886   86.3496    8.2223 C.ar    1  UNL1        0.0557
     14 N          60.3065   85.3550    7.1025 N.ar    1  UNL1       -0.2484
     15 C          61.5359   84.6161    6.6639 C.ar    1  UNL1        0.0984
     16 C          62.8477   84.8718    7.3452 C.ar    1  UNL1        0.0203
     17 C          62.9298   85.8665    8.4650 C.ar    1  UNL1       -0.0012
     18 C          61.7002   86.6054    8.9036 C.ar    1  UNL1       -0.0048
     19 C          63.1361   89.6880   12.1346 C.3     1  UNL1        0.0499
     20 C          63.4702   90.5422   13.3214 C.3     1  UNL1        0.0774
     21 N          64.7665   91.2959   13.3619 N.3     1  UNL1       -0.2700
     22 C          65.1335   92.2178   12.2370 C.3     1  UNL1        0.0897
     23 C          65.6957   91.1276   14.5273 C.3     1  UNL1        0.0897
@<TRIPOS>BOND
     1    12    13    1
     2    13    14   ar
     3    14    15   ar
     4    15    16   ar
     5    16    17   ar
     6    17    18   ar
     7    18    10    1
     8    10    11    1
     9    10     1    1
    10     1     2   ar
    11     2    19    1
    12    19    20    1
    13    20    21    1
    14    21    22    1
    15    21    23    1
    16     2     3   ar
    17     3     4   ar
    18     4     5   ar
    19     5     6   ar
    20     6     7   ar
    21     7     8   ar
    22     8     9   ar
    23    18    13   ar
    24     9     1   ar
    25     9     4   ar
@<TRIPOS>MOLECULE
*****
 23 25 0 0 0
SMALL
GASTEIGER

@<TRIPOS>ATOM
      1 C          63.7548   84.9180   13.4190 C.ar    1  UNL1       -0.0159
      2 C          63.0002   85.6092   12.3222 C.ar    1  UNL1        0.0050
      3 S          62.3315   84.5586   11.4862 S.2     1  UNL1       -0.0915
      4 C          62.6727   83.2180   12.0663 C.ar    1  UNL1        0.0288
      5 C          62.2961   81.8238   11.6611 C.ar    1  UNL1        0.0065
      6 C          62.7991   80.6517   12.4504 C.ar    1  UNL1        0.0005
      7 C          63.6788   80.8738   13.6450 C.ar    1  UNL1        0.0000
      8 C          64.0554   82.2680   14.0501 C.ar    1  UNL1        0.0002
      9 C          63.5524   83.4401   13.2608 C.ar    1  UNL1        0.0025
     10 C          64.5688   85.5871   14.4865 C.3     1  UNL1        0.0459
     11 C          66.0651   85.4823   14.4651 C.3     1  UNL1        0.0094
     12 C          64.4897   88.5840   14.3734 C.3     1  UNL1        0.0518
     13 C          63.8472   87.8594   15.5189 C.ar    1  UNL1        0.0557
     14 N          63.1651   88.6332   16.6079 N.ar    1  UNL1       -0.2484
     15 C          62.5227   87.9087   17.7535 C.ar    1  UNL1        0.0984
     16 C          62.5622   86.4103   17.8100 C.ar    1  UNL1        0.0203
     17 C          63.2443   85.6364   16.7210 C.ar    1  UNL1       -0.0012
     18 C          63.8868   86.3610   15.5754 C.ar    1  UNL1       -0.0048
     19 C          62.9273   87.0909   12.1004 C.3     1  UNL1        0.0499
     20 C          62.4328   87.6298   10.7909 C.3     1  UNL1        0.0774
     21 N          61.0063   88.0726   10.6526 N.3     1  UNL1       -0.2700
     22 C          60.4382   89.0811   11.6067 C.3     1  UNL1        0.0897
     23 C          60.1479   87.5068    9.5604 C.3     1  UNL1        0.0897
@<TRIPOS>BOND
     1    12    13    1
     2    13    14   ar
     3    14    15   ar
     4    15    16   ar
     5    16    17   ar
     6    17    18   ar
     7    18    10    1
     8    10    11    1
     9    10     1    1
    10     1     2   ar
    11     2    19    1
    12    19    20    1
    13    20    21    1
    14    21    22    1
    15    21    23    1
    16     2     3   ar
    17     3     4   ar
    18     4     5   ar
    19     5     6   ar
    20     6     7   ar
    21     7     8   ar
    22     8     9   ar
    23    18    13   ar
    24     9     1   ar
    25     9     4   ar
@<TRIPOS>MOLECULE
*****
 23 25 0 0 0
SMALL
GASTEIGER

@<TRIPOS>ATOM
      1 C          63.6057   85.8170   12.8307 C.ar    1  UNL1       -0.0159
      2 C          63.7011   87.1953   13.4148 C.ar    1  UNL1        0.0050
      3 S          63.0015   88.1420   12.4851 S.2     1  UNL1       -0.0915
      4 C          62.4739   87.3489   11.3265 C.ar    1  UNL1        0.0288
      5 C          61.7016   87.7496   10.1046 C.ar    1  UNL1        0.0065
      6 C          61.3028   86.7132    9.0962 C.ar    1  UNL1        0.0005
      7 C          61.6762   85.2762    9.3098 C.ar    1  UNL1        0.0000
      8 C          62.4484   84.8756   10.5317 C.ar    1  UNL1        0.0002
      9 C          62.8472   85.9119   11.5400 C.ar    1  UNL1        0.0025
     10 C          64.1697   84.5637   13.4317 C.3     1  UNL1        0.0459
     11 C          65.5336   84.5793   14.0560 C.3     1  UNL1        0.0094
     12 C          62.0946   84.0596   15.5388 C.3     1  UNL1        0.0518
     13 C          62.3325   83.0428   14.4619 C.ar    1  UNL1        0.0557
     14 N          61.5328   81.7740   14.4386 N.ar    1  UNL1       -0.2484
     15 C          61.7707   80.7572   13.3618 C.ar    1  UNL1        0.0984
     16 C          62.8082   81.0092   12.3082 C.ar    1  UNL1        0.0203
     17 C          63.6079   82.2781   12.3315 C.ar    1  UNL1       -0.0012
     18 C          63.3701   83.2949   13.4084 C.ar    1  UNL1       -0.0048
     19 C          64.3772   87.5623   14.7025 C.3     1  UNL1        0.0499
     20 C          63.9584   86.9042   15.9837 C.3     1  UNL1        0.0774
     21 N          63.1483   87.6677   16.9891 N.3     1  UNL1       -0.2700
     22 C          62.9622   89.1481   16.8339 C.3     1  UNL1        0.0897
     23 C          62.5245   86.9510   18.1497 C.3     1  UNL1        0.0897
@<TRIPOS>BOND
     1    12    13    1
     2    13    14   ar
     3    14    15   ar
     4    15    16   ar
     5    16    17   ar
     6    17    18   ar
     7    18    10    1
     8    10    11    1
     9    10     1    1
    10     1     2   ar
    11     2    19    1
    12    19    20    1
    13    20    21    1
    14    21    22    1
    15    21    23    1
    16     2     3   ar
    17     3     4   ar
    18     4     5   ar
    19     5     6   ar
    20     6     7   ar
    21     7     8   ar
    22     8     9   ar
    23    18    13   ar
    24     9     1   ar
    25     9     4   ar
@<TRIPOS>MOLECULE
*****
 23 25 0 0 0
SMALL
GASTEIGER

@<TRIPOS>ATOM
      1 C          62.2533   86.1704   10.5628 C.ar    1  UNL1       -0.0159
      2 C          62.5202   87.3795   11.4095 C.ar    1  UNL1        0.0050
      3 S          61.6671   88.5017   10.8969 S.2     1  UNL1       -0.0915
      4 C          60.8729   87.9862    9.7335 C.ar    1  UNL1        0.0288
      5 C          59.8666   88.6426    8.8355 C.ar    1  UNL1        0.0065
      6 C          59.2226   87.8582    7.7311 C.ar    1  UNL1        0.0005
      7 C          59.5848   86.4173    7.5246 C.ar    1  UNL1        0.0000
      8 C          60.5911   85.7609    8.4226 C.ar    1  UNL1        0.0002
      9 C          61.2351   86.5453    9.5271 C.ar    1  UNL1        0.0025
     10 C          62.8922   84.8228   10.7237 C.3     1  UNL1        0.0459
     11 C          63.7181   84.2468    9.6118 C.3     1  UNL1        0.0094
     12 C          63.0670   81.8280   10.7017 C.3     1  UNL1        0.0518
     13 C          62.7927   82.5538   11.9854 C.ar    1  UNL1        0.0557
     14 N          62.6059   81.7823   13.2581 N.ar    1  UNL1       -0.2484
     15 C          62.3316   82.5081   14.5418 C.ar    1  UNL1        0.0984
     16 C          62.2442   84.0056   14.5529 C.ar    1  UNL1        0.0203
     17 C          62.4311   84.7771   13.2802 C.ar    1  UNL1       -0.0012
     18 C          62.7054   84.0513   11.9964 C.ar    1  UNL1       -0.0048
     19 C          63.4731   87.4534   12.5656 C.3     1  UNL1        0.0499
     20 C          63.6890   88.7559   13.2774 C.3     1  UNL1        0.0774
     21 N          63.7627   88.7888   14.7753 N.3     1  UNL1       -0.2700
     22 C          63.6400   90.0944   15.5037 C.3     1  UNL1        0.0897
     23 C          63.9590   87.5163   15.5447 C.3     1  UNL1        0.0897
@<TRIPOS>BOND
     1    12    13    1
     2    13    14   ar
     3    14    15   ar
     4    15    16   ar
     5    16    17   ar
     6    17    18   ar
     7    18    10    1
     8    10    11    1
     9    10     1    1
    10     1     2   ar
    11     2    19    1
    12    19    20    1
    13    20    21    1
    14    21    22    1
    15    21    23    1
    16     2     3   ar
    17     3     4   ar
    18     4     5   ar
    19     5     6   ar
    20     6     7   ar
    21     7     8   ar
    22     8     9   ar
    23    18    13   ar
    24     9     1   ar
    25     9     4   ar
