@<TRIPOS>MOLECULE
*****
 62 69 0 0 0
SMALL
GASTEIGER

@<TRIPOS>ATOM
      1 N          65.6281   89.3755   14.5557 N.3     1  UNL1       -0.1862
      2 C          65.8838   88.1510   15.3834 C.3     1  UNL1        0.1775
      3 C          65.1212   86.8885   15.1103 C.2     1  UNL1        0.2452
      4 O          65.3770   85.6639   15.9380 O.2     1  UNL1       -0.2732
      5 N          64.1029   86.8506   14.0097 N.am    1  UNL1       -0.2541
      6 C          63.3402   85.5881   13.7366 C.3     1  UNL1        0.1577
      7 C          62.3219   85.5502   12.6360 C.2     1  UNL1        0.2445
      8 O          61.5593   84.2877   12.3629 O.2     1  UNL1       -0.2731
      9 N          62.0662   86.7748   11.8083 N.am    1  UNL1       -0.2705
     10 C          62.8288   88.0373   12.0813 C.3     1  UNL1        0.1359
     11 C          63.8472   88.0751   13.1820 C.3     1  UNL1        0.1908
     12 N          64.6098   89.3376   13.4551 N.am    1  UNL1       -0.1863
     13 C          64.3541   90.5622   12.6273 C.2     1  UNL1        0.3191
     14 O          63.3357   90.5243   11.5267 O.2     1  UNL1       -0.2512
     15 N          65.1167   91.8247   12.9004 N.am    1  UNL1       -0.2836
     16 H          65.7851   91.8496   13.6228 H       1  UNL1        0.1513
     17 C          66.3908   90.6380   14.8288 C.3     1  UNL1        0.1188
     18 C          66.6172   92.8998   16.0868 C.2     1  UNL1       -0.0034
     19 C          65.8200   91.6746   15.7505 C.2     1  UNL1       -0.0071
     20 C          63.5959   84.3635   14.5643 C.3     1  UNL1        0.0556
     21 C          63.2883   83.0048   14.0082 C.ar    1  UNL1       -0.0198
     22 C          62.1121   82.2313   14.5260 C.ar    1  UNL1       -0.0011
     23 C          61.8044   80.8725   13.9700 C.ar    1  UNL1        0.0363
     24 C          62.6730   80.2873   12.8962 C.ar    1  UNL1        0.1337
     25 O          62.3654   78.9286   12.3402 O.3     1  UNL1       -0.5055
     26 C          63.8493   81.0608   12.3784 C.ar    1  UNL1        0.0363
     27 C          64.1570   82.4196   12.9344 C.ar    1  UNL1       -0.0011
     28 H          61.6306   78.4454   12.6636 H       1  UNL1        0.2922
     29 C          61.0478   86.7369   10.7076 C.3     1  UNL1        0.1217
     30 C          60.4914   88.0161   10.1562 C.ar    1  UNL1        0.0135
     31 C          60.2210   89.1727   11.0723 C.ar    1  UNL1       -0.0012
     32 C          59.6645   90.4519   10.5210 C.ar    1  UNL1       -0.0002
     33 C          59.3785   90.5745    9.0537 C.ar    1  UNL1        0.0015
     34 C          59.6489   89.4179    8.1376 C.ar    1  UNL1        0.0170
     35 C          59.4683   89.2454    6.6586 C.ar    1  UNL1        0.0186
     36 C          59.9131   87.8596    6.2958 C.ar    1  UNL1        0.0759
     37 N          60.3686   87.1756    7.5506 N.ar    1  UNL1       -0.3242
     38 C          60.8950   85.7746    7.6497 C.3     1  UNL1        0.1305
     39 C          60.2053   88.1387    8.6889 C.ar    1  UNL1        0.0575
     40 C          58.9362   90.2776    5.7090 C.ar    1  UNL1        0.0016
     41 C          57.4610   90.5387    5.6345 C.ar    1  UNL1        0.0001
     42 C          56.9291   91.5708    4.6850 C.ar    1  UNL1        0.0001
     43 C          57.8723   92.3419    3.8099 C.ar    1  UNL1        0.0045
     44 C          59.3475   92.0808    3.8843 C.ar    1  UNL1        0.0537
     45 C          59.8794   91.0487    4.8339 C.ar    1  UNL1        0.0046
     46 C          60.2907   92.8519    3.0092 C.2     1  UNL1        0.2495
     47 O          59.9586   94.2575    2.6042 O.2     1  UNL1       -0.2698
     48 N          61.5660   92.2174    2.5392 N.am    1  UNL1       -0.2804
     49 H          61.7840   91.2949    2.8050 H       1  UNL1        0.1552
     50 C          62.5092   92.9885    1.6641 C.ar    1  UNL1        0.0505
     51 C          62.1800   93.2083    0.2173 C.ar    1  UNL1        0.0147
     52 C          63.1232   93.9794   -0.6578 C.ar    1  UNL1        0.0013
     53 C          64.3957   94.5307   -0.0861 C.ar    1  UNL1        0.0001
     54 C          64.7249   94.3108    1.3607 C.ar    1  UNL1        0.0013
     55 C          63.7817   93.5398    2.2358 C.ar    1  UNL1        0.0147
     56 C          64.8610   93.0492   12.0727 C.3     1  UNL1        0.1177
     57 C          65.8978   93.5267   11.0996 C.ar    1  UNL1       -0.0025
     58 C          66.8726   92.5541   10.5049 C.ar    1  UNL1       -0.0026
     59 C          67.9095   93.0316    9.5318 C.ar    1  UNL1       -0.0003
     60 C          67.9715   94.4817    9.1533 C.ar    1  UNL1       -0.0000
     61 C          66.9966   95.4544    9.7480 C.ar    1  UNL1       -0.0003
     62 C          65.9598   94.9769   10.7211 C.ar    1  UNL1       -0.0026
@<TRIPOS>BOND
     1    18    19    2
     2    19    17    1
     3    17     1    1
     4     1     2    1
     5     2     3    1
     6     3     4    2
     7     3     5   am
     8     5     6    1
     9     6    20    1
    10    20    21    1
    11    21    22   ar
    12    22    23   ar
    13    23    24   ar
    14    24    25    1
    15    24    26   ar
    16    26    27   ar
    17     6     7    1
    18     7     8    2
    19     7     9   am
    20     9    29    1
    21    29    30    1
    22    30    31   ar
    23    31    32   ar
    24    32    33   ar
    25    33    34   ar
    26    34    35   ar
    27    35    40    1
    28    40    41   ar
    29    41    42   ar
    30    42    43   ar
    31    43    44   ar
    32    44    46    1
    33    46    47    2
    34    46    48   am
    35    48    50    1
    36    50    51   ar
    37    51    52   ar
    38    52    53   ar
    39    53    54   ar
    40    54    55   ar
    41    44    45   ar
    42    35    36   ar
    43    36    37   ar
    44    37    38    1
    45    37    39   ar
    46     9    10    1
    47    11    10    1
    48    11    12    1
    49    12    13   am
    50    13    14    2
    51    13    15   am
    52    15    56    1
    53    56    57    1
    54    57    58   ar
    55    58    59   ar
    56    59    60   ar
    57    60    61   ar
    58    61    62   ar
    59    12     1    1
    60    62    57   ar
    61    11     5    1
    62    27    21   ar
    63    39    30   ar
    64    39    34   ar
    65    45    40   ar
    66    55    50   ar
    67    25    28    1
    68    48    49    1
    69    15    16    1
