@<TRIPOS>MOLECULE
*****
 30 33 0 0 0
SMALL
GASTEIGER

@<TRIPOS>ATOM
      1 C          63.5564   82.8849   10.6283 C.ar    1  UNL1        0.1737
      2 C          63.3242   81.4095   10.4898 C.ar    1  UNL1        0.0401
      3 C          62.9442   80.5942   11.6902 C.ar    1  UNL1        0.0046
      4 C          62.7963   81.2542   13.0290 C.ar    1  UNL1        0.0217
      5 C          63.0285   82.7296   13.1674 C.ar    1  UNL1        0.1426
      6 C          63.4085   83.5450   11.9671 C.ar    1  UNL1        0.1895
      7 O          63.6407   85.0205   12.1057 O.3     1  UNL1       -0.4686
      8 C          63.4929   85.6805   13.4445 C.3     1  UNL1        0.2104
      9 C          63.1128   84.8651   14.6448 C.3     1  UNL1        0.1779
     10 C          62.9650   85.5253   15.9836 C.3     1  UNL1        0.0300
     11 S          62.8807   83.3897   14.5063 S.O2    1  UNL1        0.0138
     12 O          62.5582   81.9726   14.8776 O.2     1  UNL1       -0.1685
     13 O          62.6208   83.5576   15.9741 O.2     1  UNL1       -0.1685
     14 C          63.7250   87.1560   13.5830 C.ar    1  UNL1        0.0191
     15 C          63.2271   88.0961   12.5255 C.ar    1  UNL1        0.0023
     16 C          63.4592   89.5715   12.6640 C.ar    1  UNL1        0.0367
     17 C          64.1893   90.1068   13.8600 C.ar    1  UNL1        0.1385
     18 C          64.6873   89.1667   14.9174 C.ar    1  UNL1        0.0367
     19 C          64.4551   87.6913   14.7790 C.ar    1  UNL1        0.0023
     20 O          64.4215   91.5823   13.9985 O.3     1  UNL1       -0.4754
     21 C          65.7774   92.0952   14.3840 C.3     1  UNL1        0.2068
     22 C          66.7146   92.6039   13.3290 C.3     1  UNL1        0.0646
     23 C          66.1873   93.4262   12.1907 C.3     1  UNL1        0.0759
     24 N          66.9453   93.4907   10.8980 N.3     1  UNL1       -0.2726
     25 C          67.0639   94.6896   10.0042 C.3     1  UNL1        0.0721
     26 C          67.9097   94.3075    8.8258 C.3     1  UNL1        0.0188
     27 C          68.3140   92.8725    8.9912 C.3     1  UNL1        0.0188
     28 C          67.7179   92.3677   10.2719 C.3     1  UNL1        0.0721
     29 C          63.0407   84.8088    8.9602 C.3     1  UNL1        0.2526
     30 O          63.9364   83.7003    9.4280 O.3     1  UNL1       -0.4683
@<TRIPOS>BOND
     1    29    30    1
     2    30     1    1
     3     1     2   ar
     4     2     3   ar
     5     3     4   ar
     6     4     5   ar
     7     5     6   ar
     8     6     7    1
     9     7     8    1
    10     8    14    1
    11    14    15   ar
    12    15    16   ar
    13    16    17   ar
    14    17    20    1
    15    20    21    1
    16    21    22    1
    17    22    23    1
    18    23    24    1
    19    24    25    1
    20    25    26    1
    21    26    27    1
    22    27    28    1
    23    17    18   ar
    24    18    19   ar
    25     8     9    1
    26     9    10    1
    27     9    11    1
    28    11    12    2
    29    11    13    2
    30     6     1   ar
    31    19    14   ar
    32    11     5    1
    33    28    24    1
@<TRIPOS>MOLECULE
*****
 30 33 0 0 0
SMALL
GASTEIGER

@<TRIPOS>ATOM
      1 C          62.5733   85.3163    8.5631 C.ar    1  UNL1        0.1737
      2 C          61.8025   84.6361    7.4708 C.ar    1  UNL1        0.0401
      3 C          60.5364   85.2506    6.9517 C.ar    1  UNL1        0.0046
      4 C          60.0411   86.5452    7.5249 C.ar    1  UNL1        0.0217
      5 C          60.8119   87.2254    8.6172 C.ar    1  UNL1        0.1426
      6 C          62.0779   86.6109    9.1363 C.ar    1  UNL1        0.1895
      7 O          62.8487   87.2912   10.2287 O.3     1  UNL1       -0.4686
      8 C          62.3534   88.5858   10.8019 C.3     1  UNL1        0.2104
      9 C          61.0873   89.2002   10.2828 C.3     1  UNL1        0.1779
     10 C          60.5920   90.4949   10.8560 C.3     1  UNL1        0.0300
     11 S          60.3166   88.5201    9.1904 S.O2    1  UNL1        0.0138
     12 O          59.2444   88.2578    8.1746 O.2     1  UNL1       -0.1685
     13 O          59.4489   89.7237    9.4109 O.2     1  UNL1       -0.1685
     14 C          63.1242   89.2661   11.8943 C.ar    1  UNL1        0.0191
     15 C          63.4586   90.7239   11.7804 C.ar    1  UNL1        0.0023
     16 C          64.2293   91.4041   12.8727 C.ar    1  UNL1        0.0367
     17 C          64.6657   90.6266   14.0789 C.ar    1  UNL1        0.1385
     18 C          64.3313   89.1688   14.1928 C.ar    1  UNL1        0.0367
     19 C          63.5605   88.4885   13.1005 C.ar    1  UNL1        0.0023
     20 O          65.4365   91.3068   15.1713 O.3     1  UNL1       -0.4754
     21 C          66.8995   91.5865   14.9946 C.3     1  UNL1        0.2068
     22 C          67.3604   92.9656   14.6264 C.3     1  UNL1        0.0646
     23 C          66.4953   93.8417   13.7696 C.3     1  UNL1        0.0759
     24 N          66.6465   93.8157   12.2775 N.3     1  UNL1       -0.2726
     25 C          66.3549   94.9514   11.3418 C.3     1  UNL1        0.0721
     26 C          66.6440   94.4872    9.9451 C.3     1  UNL1        0.0188
     27 C          67.1143   93.0646   10.0174 C.3     1  UNL1        0.0188
     28 C          67.1159   92.6497   11.4590 C.3     1  UNL1        0.0721
     29 C          63.7758   83.5530   10.0446 C.3     1  UNL1        0.2526
     30 O          63.8393   84.7019    9.0823 O.3     1  UNL1       -0.4683
@<TRIPOS>BOND
     1    29    30    1
     2    30     1    1
     3     1     2   ar
     4     2     3   ar
     5     3     4   ar
     6     4     5   ar
     7     5     6   ar
     8     6     7    1
     9     7     8    1
    10     8    14    1
    11    14    15   ar
    12    15    16   ar
    13    16    17   ar
    14    17    20    1
    15    20    21    1
    16    21    22    1
    17    22    23    1
    18    23    24    1
    19    24    25    1
    20    25    26    1
    21    26    27    1
    22    27    28    1
    23    17    18   ar
    24    18    19   ar
    25     8     9    1
    26     9    10    1
    27     9    11    1
    28    11    12    2
    29    11    13    2
    30     6     1   ar
    31    19    14   ar
    32    11     5    1
    33    28    24    1
@<TRIPOS>MOLECULE
*****
 30 33 0 0 0
SMALL
GASTEIGER

@<TRIPOS>ATOM
      1 C          63.4520   82.7683   10.9299 C.ar    1  UNL1        0.1737
      2 C          63.2600   81.2811   10.9674 C.ar    1  UNL1        0.0401
      3 C          62.9717   80.5947   12.2696 C.ar    1  UNL1        0.0046
      4 C          62.8755   81.3954   13.5343 C.ar    1  UNL1        0.0217
      5 C          63.0675   82.8826   13.4968 C.ar    1  UNL1        0.1426
      6 C          63.3557   83.5690   12.1946 C.ar    1  UNL1        0.1895
      7 O          63.5478   85.0562   12.1571 O.3     1  UNL1       -0.4686
      8 C          63.4515   85.8570   13.4218 C.3     1  UNL1        0.2104
      9 C          63.1632   85.1706   14.7240 C.3     1  UNL1        0.1779
     10 C          63.0670   85.9714   15.9887 C.3     1  UNL1        0.0300
     11 S          62.9712   83.6834   14.7615 S.O2    1  UNL1        0.0138
     12 O          62.7148   82.3085   15.3036 O.2     1  UNL1       -0.1685
     13 O          62.7859   84.0067   16.2145 O.2     1  UNL1       -0.1685
     14 C          63.6435   87.3442   13.3843 C.ar    1  UNL1        0.0191
     15 C          63.0708   88.1461   12.2534 C.ar    1  UNL1        0.0023
     16 C          63.2628   89.6333   12.2159 C.ar    1  UNL1        0.0367
     17 C          64.0275   90.3185   13.3093 C.ar    1  UNL1        0.1385
     18 C          64.6002   89.5167   14.4402 C.ar    1  UNL1        0.0367
     19 C          64.4082   88.0295   14.4777 C.ar    1  UNL1        0.0023
     20 O          64.2195   91.8058   13.2718 O.3     1  UNL1       -0.4754
     21 C          64.7641   92.4608   12.0372 C.3     1  UNL1        0.2068
     22 C          66.1169   93.1082   12.0662 C.3     1  UNL1        0.0646
     23 C          67.2969   92.3559   12.6061 C.3     1  UNL1        0.0759
     24 N          67.6716   92.4864   14.0527 N.3     1  UNL1       -0.2726
     25 C          66.7248   92.4493   15.2156 C.3     1  UNL1        0.0721
     26 C          67.5269   92.6169   16.4720 C.3     1  UNL1        0.0188
     27 C          68.9695   92.7577   16.0857 C.3     1  UNL1        0.0188
     28 C          69.0589   92.6770   14.5904 C.3     1  UNL1        0.0721
     29 C          63.0305   84.7291    9.2784 C.3     1  UNL1        0.2526
     30 O          63.7403   83.4547    9.6277 O.3     1  UNL1       -0.4683
@<TRIPOS>BOND
     1    29    30    1
     2    30     1    1
     3     1     2   ar
     4     2     3   ar
     5     3     4   ar
     6     4     5   ar
     7     5     6   ar
     8     6     7    1
     9     7     8    1
    10     8    14    1
    11    14    15   ar
    12    15    16   ar
    13    16    17   ar
    14    17    20    1
    15    20    21    1
    16    21    22    1
    17    22    23    1
    18    23    24    1
    19    24    25    1
    20    25    26    1
    21    26    27    1
    22    27    28    1
    23    17    18   ar
    24    18    19   ar
    25     8     9    1
    26     9    10    1
    27     9    11    1
    28    11    12    2
    29    11    13    2
    30     6     1   ar
    31    19    14   ar
    32    11     5    1
    33    28    24    1
@<TRIPOS>MOLECULE
*****
 30 33 0 0 0
SMALL
GASTEIGER

@<TRIPOS>ATOM
      1 C          62.5319   84.2520   14.4461 C.ar    1  UNL1        0.1737
      2 C          63.2592   83.1848   15.2091 C.ar    1  UNL1        0.0401
      3 C          64.1761   82.2409   14.4892 C.ar    1  UNL1        0.0046
      4 C          64.3658   82.3642   13.0064 C.ar    1  UNL1        0.0217
      5 C          63.6385   83.4313   12.2434 C.ar    1  UNL1        0.1426
      6 C          62.7216   84.3752   12.9633 C.ar    1  UNL1        0.1895
      7 O          61.9942   85.4425   12.2003 O.3     1  UNL1       -0.4686
      8 C          62.1839   85.5657   10.7174 C.3     1  UNL1        0.2104
      9 C          63.1009   84.6218    9.9976 C.3     1  UNL1        0.1779
     10 C          63.2905   84.7451    8.5147 C.3     1  UNL1        0.0300
     11 S          63.8282   83.5546   10.7605 S.O2    1  UNL1        0.0138
     12 O          64.7301   82.3897   11.0426 O.2     1  UNL1       -0.1685
     13 O          64.3311   83.2733    9.3756 O.2     1  UNL1       -0.1685
     14 C          61.4566   86.6329    9.9544 C.ar    1  UNL1        0.0191
     15 C          61.8083   88.0761   10.1633 C.ar    1  UNL1        0.0023
     16 C          61.0810   89.1433    9.4003 C.ar    1  UNL1        0.0367
     17 C          60.0021   88.7673    8.4285 C.ar    1  UNL1        0.1385
     18 C          59.6505   87.3242    8.2196 C.ar    1  UNL1        0.0367
     19 C          60.3777   86.2570    8.9825 C.ar    1  UNL1        0.0023
     20 O          59.2748   89.8345    7.6654 O.3     1  UNL1       -0.4754
     21 C          59.5685   90.0483    6.2101 C.3     1  UNL1        0.2068
     22 C          58.5985   90.8057    5.3526 C.3     1  UNL1        0.0646
     23 C          58.9638   92.1615    4.8250 C.3     1  UNL1        0.0759
     24 N          60.1277   92.3143    3.8912 N.3     1  UNL1       -0.2726
     25 C          61.4581   91.6336    4.0216 C.3     1  UNL1        0.0721
     26 C          62.3182   92.0732    2.8741 C.3     1  UNL1        0.0188
     27 C          61.5195   93.0256    2.0343 C.3     1  UNL1        0.0188
     28 C          60.1657   93.1746    2.6630 C.3     1  UNL1        0.0721
     29 C          61.9670   85.6813   16.5409 C.3     1  UNL1        0.2526
     30 O          61.6149   85.1959   15.1660 O.3     1  UNL1       -0.4683
@<TRIPOS>BOND
     1    29    30    1
     2    30     1    1
     3     1     2   ar
     4     2     3   ar
     5     3     4   ar
     6     4     5   ar
     7     5     6   ar
     8     6     7    1
     9     7     8    1
    10     8    14    1
    11    14    15   ar
    12    15    16   ar
    13    16    17   ar
    14    17    20    1
    15    20    21    1
    16    21    22    1
    17    22    23    1
    18    23    24    1
    19    24    25    1
    20    25    26    1
    21    26    27    1
    22    27    28    1
    23    17    18   ar
    24    18    19   ar
    25     8     9    1
    26     9    10    1
    27     9    11    1
    28    11    12    2
    29    11    13    2
    30     6     1   ar
    31    19    14   ar
    32    11     5    1
    33    28    24    1
@<TRIPOS>MOLECULE
*****
 30 33 0 0 0
SMALL
GASTEIGER

@<TRIPOS>ATOM
      1 C          67.1840   92.7130   13.4989 C.ar    1  UNL1        0.1737
      2 C          67.9878   93.4509   14.5281 C.ar    1  UNL1        0.0401
      3 C          67.5552   93.4434   15.9644 C.ar    1  UNL1        0.0046
      4 C          66.3188   92.6980   16.3714 C.ar    1  UNL1        0.0217
      5 C          65.5150   91.9602   15.3421 C.ar    1  UNL1        0.1426
      6 C          65.9476   91.9677   13.9059 C.ar    1  UNL1        0.1895
      7 O          65.1437   91.2297   12.8766 O.3     1  UNL1       -0.4686
      8 C          63.9073   90.4844   13.2836 C.3     1  UNL1        0.2104
      9 C          63.4747   90.4769   14.7198 C.3     1  UNL1        0.1779
     10 C          62.2382   89.7315   15.1268 C.3     1  UNL1        0.0300
     11 S          64.2785   91.2148   15.7491 S.O2    1  UNL1        0.0138
     12 O          64.7043   91.7595   17.0803 O.2     1  UNL1       -0.1685
     13 O          63.1899   90.6586   16.6184 O.2     1  UNL1       -0.1685
     14 C          63.1034   89.7465   12.2543 C.ar    1  UNL1        0.0191
     15 C          62.3165   90.5085   11.2296 C.ar    1  UNL1        0.0023
     16 C          61.5126   89.7707   10.2004 C.ar    1  UNL1        0.0367
     17 C          61.4957   88.2708   10.1958 C.ar    1  UNL1        0.1385
     18 C          62.2827   87.5088   11.2205 C.ar    1  UNL1        0.0367
     19 C          63.0865   88.2466   12.2498 C.ar    1  UNL1        0.0023
     20 O          60.6919   87.5329    9.1666 O.3     1  UNL1       -0.4754
     21 C          61.1703   86.2087    8.6492 C.3     1  UNL1        0.2068
     22 C          62.6404   85.9433    8.5135 C.3     1  UNL1        0.0646
     23 C          63.1627   84.5415    8.6227 C.3     1  UNL1        0.0759
     24 N          63.4211   83.9404    9.9725 N.3     1  UNL1       -0.2726
     25 C          64.3738   82.8210   10.2715 C.3     1  UNL1        0.0721
     26 C          64.3137   82.5419   11.7440 C.3     1  UNL1        0.0188
     27 C          63.3238   83.4888   12.3553 C.3     1  UNL1        0.0188
     28 C          62.7721   84.3532   11.2603 C.3     1  UNL1        0.0721
     29 C          66.7470   93.3592   11.0207 C.3     1  UNL1        0.2526
     30 O          67.6166   92.7205   12.0626 O.3     1  UNL1       -0.4683
@<TRIPOS>BOND
     1    29    30    1
     2    30     1    1
     3     1     2   ar
     4     2     3   ar
     5     3     4   ar
     6     4     5   ar
     7     5     6   ar
     8     6     7    1
     9     7     8    1
    10     8    14    1
    11    14    15   ar
    12    15    16   ar
    13    16    17   ar
    14    17    20    1
    15    20    21    1
    16    21    22    1
    17    22    23    1
    18    23    24    1
    19    24    25    1
    20    25    26    1
    21    26    27    1
    22    27    28    1
    23    17    18   ar
    24    18    19   ar
    25     8     9    1
    26     9    10    1
    27     9    11    1
    28    11    12    2
    29    11    13    2
    30     6     1   ar
    31    19    14   ar
    32    11     5    1
    33    28    24    1
@<TRIPOS>MOLECULE
*****
 30 33 0 0 0
SMALL
GASTEIGER

@<TRIPOS>ATOM
      1 C          63.1177   84.1605   10.7685 C.ar    1  UNL1        0.1737
      2 C          63.0157   82.7323   10.3216 C.ar    1  UNL1        0.0401
      3 C          63.1032   81.6234   11.3280 C.ar    1  UNL1        0.0046
      4 C          63.2928   81.9428   12.7813 C.ar    1  UNL1        0.0217
      5 C          63.3948   83.3710   13.2281 C.ar    1  UNL1        0.1426
      6 C          63.3073   84.4799   12.2218 C.ar    1  UNL1        0.1895
      7 O          63.4093   85.9082   12.6687 O.3     1  UNL1       -0.4686
      8 C          63.5988   86.2275   14.1220 C.3     1  UNL1        0.2104
      9 C          63.6864   85.1187   15.1284 C.3     1  UNL1        0.1779
     10 C          63.8760   85.4381   16.5817 C.3     1  UNL1        0.0300
     11 S          63.5844   83.6905   14.6815 S.O2    1  UNL1        0.0138
     12 O          63.5432   82.1924   14.7472 O.2     1  UNL1       -0.1685
     13 O          63.7597   83.4896   16.1576 O.2     1  UNL1       -0.1685
     14 C          63.7009   87.6558   14.5689 C.ar    1  UNL1        0.0191
     15 C          64.1332   88.7159   13.5997 C.ar    1  UNL1        0.0023
     16 C          64.2353   90.1441   14.0466 C.ar    1  UNL1        0.0367
     17 C          63.9049   90.5122   15.4627 C.ar    1  UNL1        0.1385
     18 C          63.4726   89.4522   16.4319 C.ar    1  UNL1        0.0367
     19 C          63.3706   88.0239   15.9850 C.ar    1  UNL1        0.0023
     20 O          64.0070   91.9405   15.9096 O.3     1  UNL1       -0.4754
     21 C          65.3308   92.4987   16.3406 C.3     1  UNL1        0.2068
     22 C          66.4681   92.5700   15.3652 C.3     1  UNL1        0.0646
     23 C          66.6022   93.7544   14.4547 C.3     1  UNL1        0.0759
     24 N          66.6098   93.5600   12.9674 N.3     1  UNL1       -0.2726
     25 C          66.9556   92.2912   12.2458 C.3     1  UNL1        0.0721
     26 C          66.8325   92.5472   10.7729 C.3     1  UNL1        0.0188
     27 C          66.4107   93.9743   10.5842 C.3     1  UNL1        0.0188
     28 C          66.2731   94.6002   11.9405 C.3     1  UNL1        0.0721
     29 C          61.7121   85.9306    9.4874 C.3     1  UNL1        0.2526
     30 O          63.0301   85.2693    9.7621 O.3     1  UNL1       -0.4683
@<TRIPOS>BOND
     1    29    30    1
     2    30     1    1
     3     1     2   ar
     4     2     3   ar
     5     3     4   ar
     6     4     5   ar
     7     5     6   ar
     8     6     7    1
     9     7     8    1
    10     8    14    1
    11    14    15   ar
    12    15    16   ar
    13    16    17   ar
    14    17    20    1
    15    20    21    1
    16    21    22    1
    17    22    23    1
    18    23    24    1
    19    24    25    1
    20    25    26    1
    21    26    27    1
    22    27    28    1
    23    17    18   ar
    24    18    19   ar
    25     8     9    1
    26     9    10    1
    27     9    11    1
    28    11    12    2
    29    11    13    2
    30     6     1   ar
    31    19    14   ar
    32    11     5    1
    33    28    24    1
@<TRIPOS>MOLECULE
*****
 30 33 0 0 0
SMALL
GASTEIGER

@<TRIPOS>ATOM
      1 C          62.1607   82.7224   14.4323 C.ar    1  UNL1        0.1737
      2 C          62.1755   81.2305   14.5869 C.ar    1  UNL1        0.0401
      3 C          62.5109   80.3582   13.4135 C.ar    1  UNL1        0.0046
      4 C          62.8313   80.9779   12.0857 C.ar    1  UNL1        0.0217
      5 C          62.8165   82.4698   11.9311 C.ar    1  UNL1        0.1426
      6 C          62.4812   83.3420   13.1045 C.ar    1  UNL1        0.1895
      7 O          62.4663   84.8340   12.9499 O.3     1  UNL1       -0.4686
      8 C          62.7868   85.4537   11.6220 C.3     1  UNL1        0.2104
      9 C          63.1221   84.5814   10.4487 C.3     1  UNL1        0.1779
     10 C          63.4426   85.2011    9.1207 C.3     1  UNL1        0.0300
     11 S          63.1370   83.0895   10.6032 S.O2    1  UNL1        0.0138
     12 O          63.2804   81.6376   10.2545 O.2     1  UNL1       -0.1685
     13 O          63.5073   83.2049    9.1542 O.2     1  UNL1       -0.1685
     14 C          62.7720   86.9457   11.4674 C.ar    1  UNL1        0.0191
     15 C          63.3319   87.8176   12.5519 C.ar    1  UNL1        0.0023
     16 C          63.3171   89.3095   12.3974 C.ar    1  UNL1        0.0367
     17 C          62.7424   89.9295   11.1583 C.ar    1  UNL1        0.1385
     18 C          62.1825   89.0575   10.0738 C.ar    1  UNL1        0.0367
     19 C          62.1973   87.5656   10.2284 C.ar    1  UNL1        0.0023
     20 O          62.7275   91.4215   11.0037 O.3     1  UNL1       -0.4754
     21 C          64.0145   92.1689   10.8167 C.3     1  UNL1        0.2068
     22 C          64.9742   92.3079   11.9611 C.3     1  UNL1        0.0646
     23 C          66.1213   93.2697   11.8654 C.3     1  UNL1        0.0759
     24 N          67.0298   93.2372   10.6723 N.3     1  UNL1       -0.2726
     25 C          67.1748   94.3204    9.6447 C.3     1  UNL1        0.0721
     26 C          68.1874   93.8685    8.6345 C.3     1  UNL1        0.0188
     27 C          68.6683   92.5060    9.0378 C.3     1  UNL1        0.0188
     28 C          67.9528   92.1159   10.2972 C.3     1  UNL1        0.0721
     29 C          62.7922   84.6489   16.0570 C.3     1  UNL1        0.2526
     30 O          61.8254   83.5947   15.6057 O.3     1  UNL1       -0.4683
@<TRIPOS>BOND
     1    29    30    1
     2    30     1    1
     3     1     2   ar
     4     2     3   ar
     5     3     4   ar
     6     4     5   ar
     7     5     6   ar
     8     6     7    1
     9     7     8    1
    10     8    14    1
    11    14    15   ar
    12    15    16   ar
    13    16    17   ar
    14    17    20    1
    15    20    21    1
    16    21    22    1
    17    22    23    1
    18    23    24    1
    19    24    25    1
    20    25    26    1
    21    26    27    1
    22    27    28    1
    23    17    18   ar
    24    18    19   ar
    25     8     9    1
    26     9    10    1
    27     9    11    1
    28    11    12    2
    29    11    13    2
    30     6     1   ar
    31    19    14   ar
    32    11     5    1
    33    28    24    1
@<TRIPOS>MOLECULE
*****
 30 33 0 0 0
SMALL
GASTEIGER

@<TRIPOS>ATOM
      1 C          62.2516   82.8718   14.5388 C.ar    1  UNL1        0.1737
      2 C          62.2606   81.3808   14.7022 C.ar    1  UNL1        0.0401
      3 C          62.5498   80.4988   13.5239 C.ar    1  UNL1        0.0046
      4 C          62.8301   81.1079   12.1821 C.ar    1  UNL1        0.0217
      5 C          62.8211   82.5989   12.0186 C.ar    1  UNL1        0.1426
      6 C          62.5319   83.4809   13.1969 C.ar    1  UNL1        0.1895
      7 O          62.5229   84.9719   13.0334 O.3     1  UNL1       -0.4686
      8 C          62.8032   85.5810   11.6916 C.3     1  UNL1        0.2104
      9 C          63.0924   84.6990   10.5133 C.3     1  UNL1        0.1779
     10 C          63.3727   85.3081    9.1714 C.3     1  UNL1        0.0300
     11 S          63.1014   83.2080   10.6768 S.O2    1  UNL1        0.0138
     12 O          63.2222   81.7529   10.3327 O.2     1  UNL1       -0.1685
     13 O          63.4236   83.3117    9.2154 O.2     1  UNL1       -0.1685
     14 C          62.7942   87.0721   11.5281 C.ar    1  UNL1        0.0191
     15 C          63.3811   87.9472   12.5957 C.ar    1  UNL1        0.0023
     16 C          63.3721   89.4382   12.4322 C.ar    1  UNL1        0.0367
     17 C          62.7764   90.0541   11.2011 C.ar    1  UNL1        0.1385
     18 C          62.1896   89.1790   10.1335 C.ar    1  UNL1        0.0367
     19 C          62.1985   87.6880   10.2970 C.ar    1  UNL1        0.0023
     20 O          62.7674   91.5452   11.0376 O.3     1  UNL1       -0.4754
     21 C          63.9086   92.2307   10.3463 C.3     1  UNL1        0.2068
     22 C          65.2715   92.2347   10.9727 C.3     1  UNL1        0.0646
     23 C          65.6579   93.3308   11.9210 C.3     1  UNL1        0.0759
     24 N          66.5340   93.0280   13.1003 N.3     1  UNL1       -0.2726
     25 C          66.5737   93.7946   14.3891 C.3     1  UNL1        0.0721
     26 C          67.5885   93.1459   15.2832 C.3     1  UNL1        0.0188
     27 C          68.1760   91.9784   14.5471 C.3     1  UNL1        0.0188
     28 C          67.5243   91.9056   13.1979 C.3     1  UNL1        0.0721
     29 C          62.9168   84.8509   16.0849 C.3     1  UNL1        0.2526
     30 O          61.9624   83.7538   15.7171 O.3     1  UNL1       -0.4683
@<TRIPOS>BOND
     1    29    30    1
     2    30     1    1
     3     1     2   ar
     4     2     3   ar
     5     3     4   ar
     6     4     5   ar
     7     5     6   ar
     8     6     7    1
     9     7     8    1
    10     8    14    1
    11    14    15   ar
    12    15    16   ar
    13    16    17   ar
    14    17    20    1
    15    20    21    1
    16    21    22    1
    17    22    23    1
    18    23    24    1
    19    24    25    1
    20    25    26    1
    21    26    27    1
    22    27    28    1
    23    17    18   ar
    24    18    19   ar
    25     8     9    1
    26     9    10    1
    27     9    11    1
    28    11    12    2
    29    11    13    2
    30     6     1   ar
    31    19    14   ar
    32    11     5    1
    33    28    24    1
@<TRIPOS>MOLECULE
*****
 30 33 0 0 0
SMALL
GASTEIGER

@<TRIPOS>ATOM
      1 C          63.7758   83.5629   13.1573 C.ar    1  UNL1        0.1737
      2 C          63.4573   82.3283   12.3673 C.ar    1  UNL1        0.0401
      3 C          62.7642   82.4438   11.0421 C.ar    1  UNL1        0.0046
      4 C          62.3895   83.7941   10.5069 C.ar    1  UNL1        0.0217
      5 C          62.7079   85.0287   11.2969 C.ar    1  UNL1        0.1426
      6 C          63.4011   84.9131   12.6221 C.ar    1  UNL1        0.1895
      7 O          63.7196   86.1479   13.4122 O.3     1  UNL1       -0.4686
      8 C          63.3449   87.4981   12.8770 C.3     1  UNL1        0.2104
      9 C          62.6517   87.6137   11.5518 C.3     1  UNL1        0.1779
     10 C          62.2770   88.9640   11.0166 C.3     1  UNL1        0.0300
     11 S          62.3332   86.3790   10.7618 S.O2    1  UNL1        0.0138
     12 O          61.8231   85.5083    9.6520 O.2     1  UNL1       -0.1685
     13 O          61.7814   87.4269    9.8411 O.2     1  UNL1       -0.1685
     14 C          63.6633   88.7328   13.6670 C.ar    1  UNL1        0.0191
     15 C          63.5497   88.7163   15.1626 C.ar    1  UNL1        0.0023
     16 C          63.8681   89.9509   15.9527 C.ar    1  UNL1        0.0367
     17 C          64.3002   91.2021   15.2471 C.ar    1  UNL1        0.1385
     18 C          64.4139   91.2186   13.7515 C.ar    1  UNL1        0.0367
     19 C          64.0955   89.9840   12.9615 C.ar    1  UNL1        0.0023
     20 O          64.6187   92.4368   16.0372 O.3     1  UNL1       -0.4754
     21 C          66.0407   92.7516   16.3960 C.3     1  UNL1        0.2068
     22 C          67.0709   92.9025   15.3162 C.3     1  UNL1        0.0646
     23 C          66.8979   93.9490   14.2555 C.3     1  UNL1        0.0759
     24 N          66.8188   93.5481   12.8123 N.3     1  UNL1       -0.2726
     25 C          67.4819   92.3545   12.1911 C.3     1  UNL1        0.0721
     26 C          67.1357   92.3392   10.7316 C.3     1  UNL1        0.0188
     27 C          66.2587   93.5233   10.4508 C.3     1  UNL1        0.0188
     28 C          66.0629   94.2705   11.7367 C.3     1  UNL1        0.0721
     29 C          63.7189   83.7363   15.7489 C.3     1  UNL1        0.2526
     30 O          64.4689   83.4473   14.4825 O.3     1  UNL1       -0.4683
@<TRIPOS>BOND
     1    29    30    1
     2    30     1    1
     3     1     2   ar
     4     2     3   ar
     5     3     4   ar
     6     4     5   ar
     7     5     6   ar
     8     6     7    1
     9     7     8    1
    10     8    14    1
    11    14    15   ar
    12    15    16   ar
    13    16    17   ar
    14    17    20    1
    15    20    21    1
    16    21    22    1
    17    22    23    1
    18    23    24    1
    19    24    25    1
    20    25    26    1
    21    26    27    1
    22    27    28    1
    23    17    18   ar
    24    18    19   ar
    25     8     9    1
    26     9    10    1
    27     9    11    1
    28    11    12    2
    29    11    13    2
    30     6     1   ar
    31    19    14   ar
    32    11     5    1
    33    28    24    1
