@<TRIPOS>MOLECULE
*****
 38 42 0 0 0
SMALL
GASTEIGER

@<TRIPOS>ATOM
      1 C          64.0041   90.5073   12.6747 C.ar    1  UNL1        0.0175
      2 C          64.1140   89.0655   13.0739 C.ar    1  UNL1        0.0012
      3 C          63.2397   88.0373   12.4194 C.ar    1  UNL1       -0.0029
      4 C          62.2555   88.4509   11.3656 C.ar    1  UNL1       -0.0085
      5 C          62.1456   89.8925   10.9665 C.ar    1  UNL1       -0.0246
      6 C          63.0198   90.9207   11.6210 C.ar    1  UNL1       -0.0030
      7 C          61.2382   90.5140    9.9464 C.3     1  UNL1        0.0261
      8 C          60.2165   89.8471    9.0737 C.3     1  UNL1        0.0047
      9 C          59.8501   88.3943    9.0054 C.3     1  UNL1        0.0024
     10 C          60.4146   87.2493    9.7930 C.3     1  UNL1        0.0241
     11 C          61.4852   87.2745   10.8434 C.3     1  UNL1        0.0941
     12 C          66.1212   93.8154   13.2440 C.ar    1  UNL1        0.2207
     13 N          66.6269   93.5919   14.6384 N.ar    1  UNL1       -0.2120
     14 C          66.2584   92.3401   15.3782 C.ar    1  UNL1        0.1034
     15 C          65.3841   91.3119   14.7236 C.ar    1  UNL1        0.0399
     16 C          64.8783   91.5354   13.3293 C.ar    1  UNL1        0.0857
     17 N          65.2469   92.7871   12.5895 N.ar    1  UNL1       -0.2135
     18 N          66.4897   95.0671   12.5042 N.pl3   1  UNL1       -0.2801
     19 H          66.6657   95.8988   13.0009 H       1  UNL1        0.1552
     20 C          66.0936   96.4723    7.4298 C.3     1  UNL1        0.1538
     21 N          66.4081   95.6977    8.6752 N.ar    1  UNL1       -0.2460
     22 C          66.1045   96.1260   10.0803 C.ar    1  UNL1        0.1114
     23 C          66.5902   95.0517   11.0076 C.ar    1  UNL1        0.0906
     24 C          67.1941   93.9594   10.1757 C.ar    1  UNL1        0.1363
     25 N          67.0816   94.3586    8.7341 N.ar    1  UNL1       -0.1662
     26 N          61.8311   85.9479   11.4520 N.am    1  UNL1       -0.2961
     27 C          62.6957   84.9801   10.6997 C.2     1  UNL1        0.2854
     28 O          63.2144   85.3390    9.3387 O.2     1  UNL1       -0.2667
     29 H          61.4906   85.7123   12.3452 H       1  UNL1        0.1501
     30 C          63.0416   83.6535   11.3084 C.ar    1  UNL1        0.2570
     31 N          64.3885   82.9942   11.2785 N.ar    1  UNL1       -0.0512
     32 O          64.2807   81.6865   12.0055 O.2     1  UNL1       -0.3369
     33 C          62.8672   81.5377   12.4846 C.ar    1  UNL1        0.2357
     34 N          62.1013   82.7534   12.0538 N.ar    1  UNL1       -0.1869
     35 C          62.3161   80.3770   13.2586 C.3     1  UNL1        0.0714
     36 C          61.9151   81.3059   14.3660 C.3     1  UNL1        0.0093
     37 C          62.7172   79.4481   12.1512 C.3     1  UNL1        0.0093
     38 C          61.7651   79.2163   14.0327 C.3     1  UNL1        0.0093
@<TRIPOS>BOND
     1    20    21    1
     2    21    22   ar
     3    22    23   ar
     4    23    18    1
     5    18    12    1
     6    12    13   ar
     7    13    14   ar
     8    14    15   ar
     9    15    16   ar
    10    16     1    1
    11     1     2   ar
    12     2     3   ar
    13     3     4   ar
    14     4     5   ar
    15     5     6   ar
    16     5     7    1
    17     7     8    1
    18     8     9    1
    19     9    10    1
    20    10    11    1
    21    11    26    1
    22    26    27   am
    23    27    28    2
    24    27    30    1
    25    30    31   ar
    26    31    32   ar
    27    32    33   ar
    28    33    35    1
    29    35    36    1
    30    35    37    1
    31    35    38    1
    32    33    34   ar
    33    16    17   ar
    34    23    24   ar
    35    24    25   ar
    36    25    21   ar
    37    17    12   ar
    38     6     1   ar
    39    34    30   ar
    40    11     4    1
    41    18    19    1
    42    26    29    1
@<TRIPOS>MOLECULE
*****
 38 42 0 0 0
SMALL
GASTEIGER

@<TRIPOS>ATOM
      1 C          64.2880   90.1245   13.0894 C.ar    1  UNL1        0.0175
      2 C          63.5494   90.2009   11.7861 C.ar    1  UNL1        0.0012
      3 C          62.8816   88.9784   11.2297 C.ar    1  UNL1       -0.0029
      4 C          62.9526   87.6794   11.9766 C.ar    1  UNL1       -0.0085
      5 C          63.6912   87.6031   13.2797 C.ar    1  UNL1       -0.0246
      6 C          64.3589   88.8255   13.8362 C.ar    1  UNL1       -0.0030
      7 C          63.8824   86.4173   14.1784 C.3     1  UNL1        0.0261
      8 C          63.3821   85.0150   13.9955 C.3     1  UNL1        0.0047
      9 C          62.5671   84.4523   12.8690 C.3     1  UNL1        0.0024
     10 C          62.0511   85.1527   11.6471 C.3     1  UNL1        0.0241
     11 C          62.2226   86.5890   11.2499 C.3     1  UNL1        0.0941
     12 C          65.9783   93.7094   13.2938 C.ar    1  UNL1        0.2207
     13 N          66.2911   93.7922   14.7584 N.ar    1  UNL1       -0.2120
     14 C          65.9362   92.6525   15.6667 C.ar    1  UNL1        0.1034
     15 C          65.2685   91.4299   15.1104 C.ar    1  UNL1        0.0399
     16 C          64.9557   91.3470   13.6458 C.ar    1  UNL1        0.0857
     17 N          65.3106   92.4867   12.7374 N.ar    1  UNL1       -0.2135
     18 N          66.3332   94.8491   12.3854 N.pl3   1  UNL1       -0.2801
     19 H          66.1714   95.7766   12.6730 H       1  UNL1        0.1552
     20 C          68.7348   92.4228    8.3571 C.3     1  UNL1        0.1538
     21 N          68.0386   93.4603    9.1872 N.ar    1  UNL1       -0.2460
     22 C          67.5767   93.2914   10.6043 C.ar    1  UNL1        0.1114
     23 C          66.9347   94.5755   11.0387 C.ar    1  UNL1        0.0906
     24 C          66.9998   95.5381    9.8902 C.ar    1  UNL1        0.1363
     25 N          67.6821   94.8489    8.7458 N.ar    1  UNL1       -0.1662
     26 N          61.5792   86.9874    9.9549 N.am    1  UNL1       -0.2961
     27 C          60.3173   87.7984    9.9626 C.2     1  UNL1        0.2854
     28 O          59.6989   88.2109   11.2655 O.2     1  UNL1       -0.2667
     29 H          61.9850   86.7166    9.0998 H       1  UNL1        0.1501
     30 C          59.6738   88.1968    8.6675 C.ar    1  UNL1        0.2570
     31 N          58.6931   87.3779    7.8818 N.ar    1  UNL1       -0.0512
     32 O          58.3113   88.1590    6.6594 O.2     1  UNL1       -0.3369
     33 C          59.0561   89.4606    6.6898 C.ar    1  UNL1        0.2357
     34 N          59.8982   89.4840    7.9308 N.ar    1  UNL1       -0.1869
     35 C          58.9733   90.5480    5.6598 C.3     1  UNL1        0.0714
     36 C          57.4761   90.5163    5.7467 C.3     1  UNL1        0.0093
     37 C          60.4704   90.5797    5.5730 C.3     1  UNL1        0.0093
     38 C          58.8905   91.6354    4.6299 C.3     1  UNL1        0.0093
@<TRIPOS>BOND
     1    20    21    1
     2    21    22   ar
     3    22    23   ar
     4    23    18    1
     5    18    12    1
     6    12    13   ar
     7    13    14   ar
     8    14    15   ar
     9    15    16   ar
    10    16     1    1
    11     1     2   ar
    12     2     3   ar
    13     3     4   ar
    14     4     5   ar
    15     5     6   ar
    16     5     7    1
    17     7     8    1
    18     8     9    1
    19     9    10    1
    20    10    11    1
    21    11    26    1
    22    26    27   am
    23    27    28    2
    24    27    30    1
    25    30    31   ar
    26    31    32   ar
    27    32    33   ar
    28    33    35    1
    29    35    36    1
    30    35    37    1
    31    35    38    1
    32    33    34   ar
    33    16    17   ar
    34    23    24   ar
    35    24    25   ar
    36    25    21   ar
    37    17    12   ar
    38     6     1   ar
    39    34    30   ar
    40    11     4    1
    41    18    19    1
    42    26    29    1
@<TRIPOS>MOLECULE
*****
 38 42 0 0 0
SMALL
GASTEIGER

@<TRIPOS>ATOM
      1 C          63.9336   89.5350   13.3099 C.ar    1  UNL1        0.0175
      2 C          63.2316   89.7714   12.0056 C.ar    1  UNL1        0.0012
      3 C          62.6789   88.6122   11.2305 C.ar    1  UNL1       -0.0029
      4 C          62.8283   87.2166   11.7597 C.ar    1  UNL1       -0.0085
      5 C          63.5303   86.9803   13.0640 C.ar    1  UNL1       -0.0246
      6 C          64.0830   88.1394   13.8391 C.ar    1  UNL1       -0.0030
      7 C          63.7860   85.6796   13.7663 C.3     1  UNL1        0.0261
      8 C          63.4027   84.2942   13.3375 C.3     1  UNL1        0.0047
      9 C          62.6692   83.8673   12.1009 C.3     1  UNL1        0.0024
     10 C          62.1377   84.7202   10.9873 C.3     1  UNL1        0.0241
     11 C          62.2085   86.2108   10.8354 C.3     1  UNL1        0.0941
     12 C          65.9305   92.8518   14.1827 C.ar    1  UNL1        0.2207
     13 N          65.5917   93.0128   15.6350 N.ar    1  UNL1       -0.2120
     14 C          64.7002   92.0145   16.3123 C.ar    1  UNL1        0.1034
     15 C          64.1475   90.8552   15.5373 C.ar    1  UNL1        0.0399
     16 C          64.4863   90.6942   14.0850 C.ar    1  UNL1        0.0857
     17 N          65.3778   91.6925   13.4077 N.ar    1  UNL1       -0.2135
     18 N          66.8220   93.8500   13.5054 N.pl3   1  UNL1       -0.2801
     19 H          67.5692   94.2579   13.9999 H       1  UNL1        0.1552
     20 C          65.6265   96.6320    9.1796 C.3     1  UNL1        0.1538
     21 N          66.0254   95.5056   10.0863 N.ar    1  UNL1       -0.2460
     22 C          66.1557   95.5790   11.5788 C.ar    1  UNL1        0.1114
     23 C          66.5749   94.2268   12.0746 C.ar    1  UNL1        0.0906
     24 C          66.7036   93.3177   10.8886 C.ar    1  UNL1        0.1363
     25 N          66.3640   94.1079    9.6597 N.ar    1  UNL1       -0.1662
     26 N          61.5759   86.7694    9.5955 N.am    1  UNL1       -0.2961
     27 C          60.3101   87.5683    9.6939 C.2     1  UNL1        0.2854
     28 O          59.6770   87.8085   11.0323 O.2     1  UNL1       -0.2667
     29 H          61.9914   86.6118    8.7170 H       1  UNL1        0.1501
     30 C          59.6775   88.1270    8.4538 C.ar    1  UNL1        0.2570
     31 N          58.5495   87.5072    7.6836 N.ar    1  UNL1       -0.0512
     32 O          58.2367   88.4006    6.5200 O.2     1  UNL1       -0.3369
     33 C          59.1713   89.5726    6.5712 C.ar    1  UNL1        0.2357
     34 N          60.0618   89.4036    7.7663 N.ar    1  UNL1       -0.1869
     35 C          59.2090   90.7135    5.5980 C.3     1  UNL1        0.0714
     36 C          60.7053   90.6216    5.5482 C.3     1  UNL1        0.0093
     37 C          57.7126   90.8053    5.6478 C.3     1  UNL1        0.0093
     38 C          59.2466   91.8543    4.6248 C.3     1  UNL1        0.0093
@<TRIPOS>BOND
     1    20    21    1
     2    21    22   ar
     3    22    23   ar
     4    23    18    1
     5    18    12    1
     6    12    13   ar
     7    13    14   ar
     8    14    15   ar
     9    15    16   ar
    10    16     1    1
    11     1     2   ar
    12     2     3   ar
    13     3     4   ar
    14     4     5   ar
    15     5     6   ar
    16     5     7    1
    17     7     8    1
    18     8     9    1
    19     9    10    1
    20    10    11    1
    21    11    26    1
    22    26    27   am
    23    27    28    2
    24    27    30    1
    25    30    31   ar
    26    31    32   ar
    27    32    33   ar
    28    33    35    1
    29    35    36    1
    30    35    37    1
    31    35    38    1
    32    33    34   ar
    33    16    17   ar
    34    23    24   ar
    35    24    25   ar
    36    25    21   ar
    37    17    12   ar
    38     6     1   ar
    39    34    30   ar
    40    11     4    1
    41    18    19    1
    42    26    29    1
@<TRIPOS>MOLECULE
*****
 38 42 0 0 0
SMALL
GASTEIGER

@<TRIPOS>ATOM
      1 C          61.7196   86.7954   10.3818 C.ar    1  UNL1        0.0175
      2 C          62.4193   88.0134   10.9080 C.ar    1  UNL1        0.0012
      3 C          63.1822   87.9417   12.1976 C.ar    1  UNL1       -0.0029
      4 C          63.2454   86.6519   12.9609 C.ar    1  UNL1       -0.0085
      5 C          62.5457   85.4340   12.4347 C.ar    1  UNL1       -0.0246
      6 C          61.7828   85.5056   11.1452 C.ar    1  UNL1       -0.0030
      7 C          62.4824   84.0600   13.0332 C.3     1  UNL1        0.0261
      8 C          63.1031   83.5647   14.3059 C.3     1  UNL1        0.0047
      9 C          63.9404   84.3211   15.2941 C.3     1  UNL1        0.0024
     10 C          64.3639   85.7595   15.2540 C.3     1  UNL1        0.0241
     11 C          64.0546   86.7969   14.2156 C.3     1  UNL1        0.0941
     12 C          59.3377   88.1338    7.5034 C.ar    1  UNL1        0.2207
     13 N          59.4308   87.0108    6.5134 N.ar    1  UNL1       -0.2120
     14 C          60.2869   85.8160    6.8128 C.ar    1  UNL1        0.1034
     15 C          61.0498   85.7442    8.1023 C.ar    1  UNL1        0.0399
     16 C          60.9567   86.8671    9.0924 C.ar    1  UNL1        0.0857
     17 N          60.1007   88.0619    8.7929 N.ar    1  UNL1       -0.2135
     18 N          58.4817   89.3286    7.2040 N.pl3   1  UNL1       -0.2801
     19 H          57.6695   89.4975    7.7341 H       1  UNL1        0.1552
     20 C          61.3159   91.9997    3.6383 C.3     1  UNL1        0.1538
     21 N          60.1659   91.4937    4.4579 N.ar    1  UNL1       -0.2460
     22 C          60.2454   90.4695    5.5509 C.ar    1  UNL1        0.1114
     23 C          58.8631   90.2660    6.0968 C.ar    1  UNL1        0.0906
     24 C          57.9294   91.1644    5.3412 C.ar    1  UNL1        0.1363
     25 N          58.7345   91.9232    4.3282 N.ar    1  UNL1       -0.1662
     26 N          64.6305   88.1592   14.4649 N.am    1  UNL1       -0.2961
     27 C          63.9012   89.1327   15.3426 C.2     1  UNL1        0.2854
     28 O          62.5959   88.7438   15.9711 O.2     1  UNL1       -0.2667
     29 H          65.4872   88.4144   14.0524 H       1  UNL1        0.1501
     30 C          64.4773   90.4952   15.5919 C.ar    1  UNL1        0.2570
     31 N          63.7863   91.6308   16.2866 N.ar    1  UNL1       -0.0512
     32 O          64.7274   92.7986   16.3143 O.2     1  UNL1       -0.3369
     33 C          65.9999   92.3846   15.6367 C.ar    1  UNL1        0.2357
     34 N          65.8454   90.9610   15.1902 N.ar    1  UNL1       -0.1869
     35 C          67.2139   93.2434   15.4401 C.3     1  UNL1        0.0714
     36 C          67.8706   92.5845   16.6167 C.3     1  UNL1        0.0093
     37 C          66.5571   93.9024   14.2634 C.3     1  UNL1        0.0093
     38 C          68.4279   94.1022   15.2435 C.3     1  UNL1        0.0093
@<TRIPOS>BOND
     1    20    21    1
     2    21    22   ar
     3    22    23   ar
     4    23    18    1
     5    18    12    1
     6    12    13   ar
     7    13    14   ar
     8    14    15   ar
     9    15    16   ar
    10    16     1    1
    11     1     2   ar
    12     2     3   ar
    13     3     4   ar
    14     4     5   ar
    15     5     6   ar
    16     5     7    1
    17     7     8    1
    18     8     9    1
    19     9    10    1
    20    10    11    1
    21    11    26    1
    22    26    27   am
    23    27    28    2
    24    27    30    1
    25    30    31   ar
    26    31    32   ar
    27    32    33   ar
    28    33    35    1
    29    35    36    1
    30    35    37    1
    31    35    38    1
    32    33    34   ar
    33    16    17   ar
    34    23    24   ar
    35    24    25   ar
    36    25    21   ar
    37    17    12   ar
    38     6     1   ar
    39    34    30   ar
    40    11     4    1
    41    18    19    1
    42    26    29    1
@<TRIPOS>MOLECULE
*****
 38 42 0 0 0
SMALL
GASTEIGER

@<TRIPOS>ATOM
      1 C          63.5544   90.6735   12.0194 C.ar    1  UNL1        0.0175
      2 C          63.1538   91.3629   10.7488 C.ar    1  UNL1        0.0012
      3 C          62.3248   90.6372    9.7309 C.ar    1  UNL1       -0.0029
      4 C          61.8964   89.2220    9.9836 C.ar    1  UNL1       -0.0085
      5 C          62.2969   88.5327   11.2540 C.ar    1  UNL1       -0.0246
      6 C          63.1259   89.2583   12.2720 C.ar    1  UNL1       -0.0030
      7 C          61.9791   87.1364   11.7008 C.3     1  UNL1        0.0261
      8 C          61.1821   86.0848   10.9873 C.3     1  UNL1        0.0047
      9 C          60.5063   86.1697    9.6510 C.3     1  UNL1        0.0024
     10 C          60.4604   87.3271    8.6979 C.3     1  UNL1        0.0241
     11 C          61.0790   88.6855    8.8460 C.3     1  UNL1        0.0941
     12 C          65.9758   93.3549   13.6615 C.ar    1  UNL1        0.2207
     13 N          66.0414   92.8509   15.0728 N.ar    1  UNL1       -0.2120
     14 C          65.2779   91.6212   15.4663 C.ar    1  UNL1        0.1034
     15 C          64.4489   90.8953   14.4484 C.ar    1  UNL1        0.0399
     16 C          64.3833   91.3992   13.0372 C.ar    1  UNL1        0.0857
     17 N          65.1468   92.6290   12.6437 N.ar    1  UNL1       -0.2135
     18 N          66.7393   94.5846   13.2681 N.pl3   1  UNL1       -0.2801
     19 H          67.3638   95.0012   13.9050 H       1  UNL1        0.1552
     20 C          66.8504   95.2846    8.0356 C.3     1  UNL1        0.1538
     21 N          66.6023   95.5015    9.4990 N.ar    1  UNL1       -0.2460
     22 C          66.9916   94.5684   10.6070 C.ar    1  UNL1        0.1114
     23 C          66.5512   95.1798   11.9040 C.ar    1  UNL1        0.0906
     24 C          65.8897   96.4907   11.5976 C.ar    1  UNL1        0.1363
     25 N          65.9212   96.6895   10.1111 N.ar    1  UNL1       -0.1662
     26 N          60.8501   89.6327    7.7056 N.am    1  UNL1       -0.2961
     27 C          59.5955   89.5342    6.8892 C.2     1  UNL1        0.2854
     28 O          58.5700   88.4885    7.2131 O.2     1  UNL1       -0.2667
     29 H          61.5231   90.3190    7.4930 H       1  UNL1        0.1501
     30 C          59.3666   90.4814    5.7488 C.ar    1  UNL1        0.2570
     31 N          58.0505   91.0816    5.3519 N.ar    1  UNL1       -0.0512
     32 O          58.2840   91.9658    4.1629 O.2     1  UNL1       -0.3369
     33 C          59.7445   91.9121    3.8251 C.ar    1  UNL1        0.2357
     34 N          60.4136   90.9947    4.8052 N.ar    1  UNL1       -0.1869
     35 C          60.4177   92.6469    2.7039 C.3     1  UNL1        0.0714
     36 C          61.7572   92.3247    3.2971 C.3     1  UNL1        0.0093
     37 C          59.0781   92.9690    2.1107 C.3     1  UNL1        0.0093
     38 C          61.0909   93.3816    1.5828 C.3     1  UNL1        0.0093
@<TRIPOS>BOND
     1    20    21    1
     2    21    22   ar
     3    22    23   ar
     4    23    18    1
     5    18    12    1
     6    12    13   ar
     7    13    14   ar
     8    14    15   ar
     9    15    16   ar
    10    16     1    1
    11     1     2   ar
    12     2     3   ar
    13     3     4   ar
    14     4     5   ar
    15     5     6   ar
    16     5     7    1
    17     7     8    1
    18     8     9    1
    19     9    10    1
    20    10    11    1
    21    11    26    1
    22    26    27   am
    23    27    28    2
    24    27    30    1
    25    30    31   ar
    26    31    32   ar
    27    32    33   ar
    28    33    35    1
    29    35    36    1
    30    35    37    1
    31    35    38    1
    32    33    34   ar
    33    16    17   ar
    34    23    24   ar
    35    24    25   ar
    36    25    21   ar
    37    17    12   ar
    38     6     1   ar
    39    34    30   ar
    40    11     4    1
    41    18    19    1
    42    26    29    1
