@<TRIPOS>MOLECULE
*****
 26 29 0 0 0
SMALL
GASTEIGER

@<TRIPOS>ATOM
      1 C          64.3711   91.2464   12.0629 C.ar    1  UNL1        0.0388
      2 C          64.5365   90.2382   13.1611 C.ar    1  UNL1        0.0029
      3 C          63.8387   88.9133   13.0742 C.ar    1  UNL1       -0.0029
      4 C          62.9755   88.5965   11.8891 C.ar    1  UNL1       -0.0084
      5 C          62.8101   89.6047   10.7908 C.ar    1  UNL1       -0.0244
      6 C          63.5079   90.9296   10.8777 C.ar    1  UNL1       -0.0014
      7 C          61.9019   89.0148    9.7530 C.3     1  UNL1        0.0281
      8 C          61.5059   87.6420   10.2098 C.3     1  UNL1        0.0288
      9 C          62.1694   87.3835   11.5300 C.3     1  UNL1        0.0944
     10 C          66.0578   94.7035   11.5440 C.ar    1  UNL1        0.2366
     11 N          65.3417   93.5010   11.0046 N.ar    1  UNL1       -0.1907
     12 C          65.0689   92.5714   12.1498 C.ar    1  UNL1        0.2033
     13 N          65.6165   93.1994   13.3971 N.ar    1  UNL1       -0.0560
     14 O          66.2277   94.5171   13.0227 O.2     1  UNL1       -0.3370
     15 C          67.2724   95.6753    9.4631 C.3     1  UNL1        0.0103
     16 C          66.5225   95.8850   10.7452 C.3     1  UNL1        0.0881
     17 N          62.0482   86.1317   12.3476 N.am    1  UNL1       -0.2986
     18 C          62.6458   84.8495   11.8489 C.2     1  UNL1        0.2491
     19 O          63.3646   84.8190   10.5327 O.2     1  UNL1       -0.2700
     20 H          61.5765   86.1518   13.2114 H       1  UNL1        0.1500
     21 C          62.5247   83.5977   12.6664 C.ar    1  UNL1        0.0929
     22 C          62.3890   83.5288   14.1587 C.ar    1  UNL1        0.1262
     23 N          62.2984   82.0836   14.5496 N.ar    1  UNL1       -0.1674
     24 N          62.3781   81.2591   13.2991 N.ar    1  UNL1       -0.2472
     25 C          62.3269   79.7618   13.2252 C.3     1  UNL1        0.1538
     26 C          62.5179   82.1950   12.1351 C.ar    1  UNL1        0.1012
@<TRIPOS>BOND
     1    15    16    1
     2    16    10    1
     3    10    11   ar
     4    11    12   ar
     5    12     1    1
     6     1     2   ar
     7     2     3   ar
     8     3     4   ar
     9     4     5   ar
    10     5     6   ar
    11     5     7    1
    12     7     8    1
    13     8     9    1
    14     9    17    1
    15    17    18   am
    16    18    19    2
    17    18    21    1
    18    21    22   ar
    19    22    23   ar
    20    23    24   ar
    21    24    25    1
    22    24    26   ar
    23    12    13   ar
    24    13    14   ar
    25    14    10   ar
    26     6     1   ar
    27    26    21   ar
    28     9     4    1
    29    17    20    1
@<TRIPOS>MOLECULE
*****
 26 29 0 0 0
SMALL
GASTEIGER

@<TRIPOS>ATOM
      1 C          64.2426   89.4576   14.0844 C.ar    1  UNL1        0.0388
      2 C          64.3426   88.1077   14.7308 C.ar    1  UNL1        0.0029
      3 C          63.7943   86.8991   14.0319 C.ar    1  UNL1       -0.0029
      4 C          63.1461   87.0403   12.6866 C.ar    1  UNL1       -0.0084
      5 C          63.0461   88.3901   12.0402 C.ar    1  UNL1       -0.0244
      6 C          63.5943   89.5988   12.7391 C.ar    1  UNL1       -0.0014
      7 C          62.3582   88.2211   10.7180 C.3     1  UNL1        0.0281
      8 C          62.0330   86.7667   10.5472 C.3     1  UNL1        0.0288
      9 C          62.5199   86.0369   11.7639 C.3     1  UNL1        0.0944
     10 C          66.2896   92.4336   15.5054 C.ar    1  UNL1        0.2366
     11 N          66.1729   91.2267   14.6223 N.ar    1  UNL1       -0.1907
     12 C          64.7909   90.6663   14.7833 C.ar    1  UNL1        0.2033
     13 N          64.0534   91.5269   15.7659 N.ar    1  UNL1       -0.0560
     14 O          64.9796   92.6191   16.2122 O.2     1  UNL1       -0.3370
     15 C          68.8654   92.7441   15.3679 C.3     1  UNL1        0.0103
     16 C          67.5031   93.3024   15.6553 C.3     1  UNL1        0.0881
     17 N          62.4016   84.5626   12.0139 N.am    1  UNL1       -0.2986
     18 C          63.1072   83.5905   11.1156 C.2     1  UNL1        0.2491
     19 O          63.9312   84.0928    9.9671 O.2     1  UNL1       -0.2700
     20 H          61.8608   84.2331   12.7677 H       1  UNL1        0.1500
     21 C          62.9889   82.1163   11.3656 C.ar    1  UNL1        0.0929
     22 C          62.8291   81.4591   12.7044 C.ar    1  UNL1        0.1262
     23 N          62.7511   79.9770   12.4868 N.ar    1  UNL1       -0.1674
     24 N          62.8627   79.7182   11.0135 N.ar    1  UNL1       -0.2472
     25 C          62.8325   78.3734   10.3497 C.3     1  UNL1        0.1538
     26 C          63.0096   81.0404   10.3206 C.ar    1  UNL1        0.1012
@<TRIPOS>BOND
     1    15    16    1
     2    16    10    1
     3    10    11   ar
     4    11    12   ar
     5    12     1    1
     6     1     2   ar
     7     2     3   ar
     8     3     4   ar
     9     4     5   ar
    10     5     6   ar
    11     5     7    1
    12     7     8    1
    13     8     9    1
    14     9    17    1
    15    17    18   am
    16    18    19    2
    17    18    21    1
    18    21    22   ar
    19    22    23   ar
    20    23    24   ar
    21    24    25    1
    22    24    26   ar
    23    12    13   ar
    24    13    14   ar
    25    14    10   ar
    26     6     1   ar
    27    26    21   ar
    28     9     4    1
    29    17    20    1
@<TRIPOS>MOLECULE
*****
 26 29 0 0 0
SMALL
GASTEIGER

@<TRIPOS>ATOM
      1 C          62.8728   84.3392   12.6020 C.ar    1  UNL1        0.0388
      2 C          63.8211   84.9715   13.5771 C.ar    1  UNL1        0.0029
      3 C          64.0288   86.4570   13.5655 C.ar    1  UNL1       -0.0029
      4 C          63.2882   87.3102   12.5789 C.ar    1  UNL1       -0.0084
      5 C          62.3398   86.6779   11.6038 C.ar    1  UNL1       -0.0244
      6 C          62.1321   85.1924   11.6154 C.ar    1  UNL1       -0.0014
      7 C          61.7541   87.7667   10.7544 C.3     1  UNL1        0.0281
      8 C          62.3405   89.0719   11.2045 C.3     1  UNL1        0.0288
      9 C          63.2886   88.7898   12.3321 C.3     1  UNL1        0.0944
     10 C          62.6280   80.5228   11.9379 C.ar    1  UNL1        0.2366
     11 N          63.0003   81.9079   11.4986 N.ar    1  UNL1       -0.1907
     12 C          62.6650   82.8537   12.6135 C.ar    1  UNL1        0.2033
     13 N          62.0856   82.0532   13.7420 N.ar    1  UNL1       -0.0560
     14 O          62.0628   80.6126   13.3245 O.2     1  UNL1       -0.3370
     15 C          62.7952   79.3343    9.6337 C.3     1  UNL1        0.0103
     16 C          62.7923   79.2683   11.1322 C.3     1  UNL1        0.0881
     17 N          64.0955   89.8084   13.0814 N.am    1  UNL1       -0.2986
     18 C          63.7473   90.1442   14.5012 C.2     1  UNL1        0.2491
     19 O          62.5921   89.4614   15.1717 O.2     1  UNL1       -0.2700
     20 H          64.8536   90.2565   12.6413 H       1  UNL1        0.1500
     21 C          64.5541   91.1627   15.2506 C.ar    1  UNL1        0.0929
     22 C          64.1304   91.8784   16.4989 C.ar    1  UNL1        0.1262
     23 N          65.2407   92.8024   16.9030 N.ar    1  UNL1       -0.1674
     24 N          66.3507   92.6578   15.9045 N.ar    1  UNL1       -0.2472
     25 C          67.6559   93.3968   15.9237 C.3     1  UNL1        0.1538
     26 C          65.9263   91.6444   14.8832 C.ar    1  UNL1        0.1012
@<TRIPOS>BOND
     1    15    16    1
     2    16    10    1
     3    10    11   ar
     4    11    12   ar
     5    12     1    1
     6     1     2   ar
     7     2     3   ar
     8     3     4   ar
     9     4     5   ar
    10     5     6   ar
    11     5     7    1
    12     7     8    1
    13     8     9    1
    14     9    17    1
    15    17    18   am
    16    18    19    2
    17    18    21    1
    18    21    22   ar
    19    22    23   ar
    20    23    24   ar
    21    24    25    1
    22    24    26   ar
    23    12    13   ar
    24    13    14   ar
    25    14    10   ar
    26     6     1   ar
    27    26    21   ar
    28     9     4    1
    29    17    20    1
@<TRIPOS>MOLECULE
*****
 26 29 0 0 0
SMALL
GASTEIGER

@<TRIPOS>ATOM
      1 C          63.1142   83.3366   14.0818 C.ar    1  UNL1        0.0388
      2 C          63.9542   84.2549   13.2445 C.ar    1  UNL1        0.0029
      3 C          64.2508   85.6451   13.7233 C.ar    1  UNL1       -0.0029
      4 C          63.7074   86.1170   15.0393 C.ar    1  UNL1       -0.0084
      5 C          62.8674   85.1987   15.8766 C.ar    1  UNL1       -0.0244
      6 C          62.5708   83.8085   15.3978 C.ar    1  UNL1       -0.0014
      7 C          62.4723   85.9375   17.1208 C.3     1  UNL1        0.0281
      8 C          63.0682   87.3124   17.0526 C.3     1  UNL1        0.0288
      9 C          63.8315   87.4234   15.7661 C.3     1  UNL1        0.0944
     10 C          62.6557   79.9745   12.1971 C.ar    1  UNL1        0.2366
     11 N          63.1198   81.4002   12.2390 N.ar    1  UNL1       -0.1907
     12 C          62.8175   81.9463   13.6030 C.ar    1  UNL1        0.2033
     13 N          62.1665   80.8580   14.4041 N.ar    1  UNL1       -0.0560
     14 O          62.0665   79.6394   13.5353 O.2     1  UNL1       -0.3370
     15 C          62.7704   79.5994    9.6288 C.3     1  UNL1        0.0103
     16 C          62.7620   79.0467   11.0232 C.3     1  UNL1        0.0881
     17 N          64.5864   88.6289   15.2900 N.am    1  UNL1       -0.2986
     18 C          63.8460   89.7936   14.7025 C.2     1  UNL1        0.2491
     19 O          62.3506   89.7527   14.5911 O.2     1  UNL1       -0.2700
     20 H          65.5678   88.6558   15.3632 H       1  UNL1        0.1500
     21 C          64.6008   90.9993   14.2263 C.ar    1  UNL1        0.0929
     22 C          65.4680   91.8863   15.0696 C.ar    1  UNL1        0.1262
     23 N          66.0241   92.9647   14.1877 N.ar    1  UNL1       -0.1674
     24 N          65.5005   92.7443   12.7995 N.ar    1  UNL1       -0.2472
     25 C          65.8033   93.5901   11.5982 C.3     1  UNL1        0.1538
     26 C          64.6208   91.5295   12.8234 C.ar    1  UNL1        0.1012
@<TRIPOS>BOND
     1    15    16    1
     2    16    10    1
     3    10    11   ar
     4    11    12   ar
     5    12     1    1
     6     1     2   ar
     7     2     3   ar
     8     3     4   ar
     9     4     5   ar
    10     5     6   ar
    11     5     7    1
    12     7     8    1
    13     8     9    1
    14     9    17    1
    15    17    18   am
    16    18    19    2
    17    18    21    1
    18    21    22   ar
    19    22    23   ar
    20    23    24   ar
    21    24    25    1
    22    24    26   ar
    23    12    13   ar
    24    13    14   ar
    25    14    10   ar
    26     6     1   ar
    27    26    21   ar
    28     9     4    1
    29    17    20    1
@<TRIPOS>MOLECULE
*****
 26 29 0 0 0
SMALL
GASTEIGER

@<TRIPOS>ATOM
      1 C          62.3908   85.2810   10.4849 C.ar    1  UNL1        0.0388
      2 C          62.5837   85.8130    9.0958 C.ar    1  UNL1        0.0029
      3 C          61.9315   87.1010    8.6887 C.ar    1  UNL1       -0.0029
      4 C          61.0865   87.8570    9.6707 C.ar    1  UNL1       -0.0084
      5 C          60.8936   87.3250   11.0598 C.ar    1  UNL1       -0.0244
      6 C          61.5457   86.0370   11.4670 C.ar    1  UNL1       -0.0014
      7 C          60.0118   88.2829   11.8048 C.3     1  UNL1        0.0281
      8 C          59.6598   89.4070   10.8760 C.3     1  UNL1        0.0288
      9 C          60.3239   89.1437    9.5571 C.3     1  UNL1        0.0944
     10 C          63.5597   81.9436   12.0853 C.ar    1  UNL1        0.2366
     11 N          62.6387   83.1270   12.0482 N.ar    1  UNL1       -0.1907
     12 C          63.0430   83.9930   10.8921 C.ar    1  UNL1        0.2033
     13 N          64.2138   83.3449   10.2147 N.ar    1  UNL1       -0.0560
     14 O          64.5332   82.0783   10.9521 O.2     1  UNL1       -0.3370
     15 C          62.2144   80.1391   13.3830 C.3     1  UNL1        0.0103
     16 C          63.5151   80.8225   13.0808 C.3     1  UNL1        0.0881
     17 N          60.2403   90.0144    8.3385 N.am    1  UNL1       -0.2986
     18 C          59.3393   89.6299    7.2025 C.2     1  UNL1        0.2491
     19 O          58.5219   88.3749    7.2853 O.2     1  UNL1       -0.2700
     20 H          60.7768   90.8381    8.2842 H       1  UNL1        0.1500
     21 C          59.2556   90.5005    5.9839 C.ar    1  UNL1        0.0929
     22 C          57.9979   91.0437    5.3730 C.ar    1  UNL1        0.1262
     23 N          58.3800   91.8596    4.1738 N.ar    1  UNL1       -0.1674
     24 N          59.8737   91.8207    4.0434 N.ar    1  UNL1       -0.2472
     25 C          60.6842   92.5021    2.9808 C.3     1  UNL1        0.1538
     26 C          60.4149   90.9807    5.1621 C.ar    1  UNL1        0.1012
@<TRIPOS>BOND
     1    15    16    1
     2    16    10    1
     3    10    11   ar
     4    11    12   ar
     5    12     1    1
     6     1     2   ar
     7     2     3   ar
     8     3     4   ar
     9     4     5   ar
    10     5     6   ar
    11     5     7    1
    12     7     8    1
    13     8     9    1
    14     9    17    1
    15    17    18   am
    16    18    19    2
    17    18    21    1
    18    21    22   ar
    19    22    23   ar
    20    23    24   ar
    21    24    25    1
    22    24    26   ar
    23    12    13   ar
    24    13    14   ar
    25    14    10   ar
    26     6     1   ar
    27    26    21   ar
    28     9     4    1
    29    17    20    1
@<TRIPOS>MOLECULE
*****
 26 29 0 0 0
SMALL
GASTEIGER

@<TRIPOS>ATOM
      1 C          63.5231   85.5689   14.6684 C.ar    1  UNL1        0.0388
      2 C          63.9088   86.3303   13.4350 C.ar    1  UNL1        0.0029
      3 C          64.0355   87.8240   13.4846 C.ar    1  UNL1       -0.0029
      4 C          63.7765   88.5565   14.7678 C.ar    1  UNL1       -0.0084
      5 C          63.3908   87.7951   16.0012 C.ar    1  UNL1       -0.0244
      6 C          63.2641   86.3013   15.9516 C.ar    1  UNL1       -0.0014
      7 C          63.1990   88.7823   17.1142 C.3     1  UNL1        0.0281
      8 C          63.4661   90.1538   16.5686 C.3     1  UNL1        0.0288
      9 C          63.8230   90.0142   15.1184 C.3     1  UNL1        0.0944
     10 C          62.5584   81.8435   14.1623 C.ar    1  UNL1        0.2366
     11 N          62.2815   83.3057   13.9746 N.ar    1  UNL1       -0.1907
     12 C          63.3964   84.0750   14.6188 C.ar    1  UNL1        0.2033
     13 N          64.3624   83.0883   15.2047 N.ar    1  UNL1       -0.0560
     14 O          63.8445   81.7091   14.9226 O.2     1  UNL1       -0.3370
     15 C          60.2794   80.5961   14.1426 C.3     1  UNL1        0.0103
     16 C          61.6999   80.7139   13.6753 C.3     1  UNL1        0.0881
     17 N          64.1663   91.1355   14.1830 N.am    1  UNL1       -0.2986
     18 C          65.5917   91.5782   14.0340 C.2     1  UNL1        0.2491
     19 O          66.6738   90.8995   14.8203 O.2     1  UNL1       -0.2700
     20 H          63.4560   91.5809   13.6669 H       1  UNL1        0.1500
     21 C          65.9350   92.6994   13.0986 C.ar    1  UNL1        0.0929
     22 C          66.4105   94.0653   13.4965 C.ar    1  UNL1        0.1262
     23 N          66.6324   94.8616   12.2449 N.ar    1  UNL1       -0.1674
     24 N          66.2941   93.9880   11.0735 N.ar    1  UNL1       -0.2472
     25 C          66.3729   94.3816    9.6281 C.3     1  UNL1        0.1538
     26 C          65.8630   92.6517   11.6011 C.ar    1  UNL1        0.1012
@<TRIPOS>BOND
     1    15    16    1
     2    16    10    1
     3    10    11   ar
     4    11    12   ar
     5    12     1    1
     6     1     2   ar
     7     2     3   ar
     8     3     4   ar
     9     4     5   ar
    10     5     6   ar
    11     5     7    1
    12     7     8    1
    13     8     9    1
    14     9    17    1
    15    17    18   am
    16    18    19    2
    17    18    21    1
    18    21    22   ar
    19    22    23   ar
    20    23    24   ar
    21    24    25    1
    22    24    26   ar
    23    12    13   ar
    24    13    14   ar
    25    14    10   ar
    26     6     1   ar
    27    26    21   ar
    28     9     4    1
    29    17    20    1
@<TRIPOS>MOLECULE
*****
 26 29 0 0 0
SMALL
GASTEIGER

@<TRIPOS>ATOM
      1 C          64.4553   89.4810   14.9250 C.ar    1  UNL1        0.0388
      2 C          64.6978   88.3509   13.9690 C.ar    1  UNL1        0.0029
      3 C          64.2292   86.9672   14.3091 C.ar    1  UNL1       -0.0029
      4 C          63.5179   86.7136   15.6052 C.ar    1  UNL1       -0.0084
      5 C          63.2754   87.8437   16.5612 C.ar    1  UNL1       -0.0244
      6 C          63.7441   89.2274   16.2211 C.ar    1  UNL1       -0.0014
      7 C          62.5526   87.2939   17.7550 C.3     1  UNL1        0.0281
      8 C          62.3484   85.8239   17.5368 C.3     1  UNL1        0.0288
      9 C          62.9450   85.4653   16.2081 C.3     1  UNL1        0.0944
     10 C          65.6655   92.8087   13.3351 C.ar    1  UNL1        0.2366
     11 N          65.2323   91.3781   13.2096 N.ar    1  UNL1       -0.1907
     12 C          64.9240   90.8648   14.5849 C.ar    1  UNL1        0.2033
     13 N          65.1667   91.9781   15.5605 N.ar    1  UNL1       -0.0560
     14 O          65.6249   93.1795   14.7881 O.2     1  UNL1       -0.3370
     15 C          65.7053   93.3533   10.7951 C.3     1  UNL1        0.0103
     16 C          66.0685   93.7102   12.2060 C.3     1  UNL1        0.0881
     17 N          62.9652   84.0984   15.5908 N.am    1  UNL1       -0.2986
     18 C          62.4700   83.9013   14.1887 C.2     1  UNL1        0.2491
     19 O          61.9547   85.0713   13.4039 O.2     1  UNL1       -0.2700
     20 H          63.3034   83.3305   16.1059 H       1  UNL1        0.1500
     21 C          62.4902   82.5345   13.5712 C.ar    1  UNL1        0.0929
     22 C          62.1483   81.2488   14.2642 C.ar    1  UNL1        0.1262
     23 N          62.3026   80.1331   13.2737 N.ar    1  UNL1       -0.1674
     24 N          62.7398   80.7291   11.9685 N.ar    1  UNL1       -0.2472
     25 C          63.0131   79.9737   10.7016 C.3     1  UNL1        0.1538
     26 C          62.8557   82.2133   12.1524 C.ar    1  UNL1        0.1012
@<TRIPOS>BOND
     1    15    16    1
     2    16    10    1
     3    10    11   ar
     4    11    12   ar
     5    12     1    1
     6     1     2   ar
     7     2     3   ar
     8     3     4   ar
     9     4     5   ar
    10     5     6   ar
    11     5     7    1
    12     7     8    1
    13     8     9    1
    14     9    17    1
    15    17    18   am
    16    18    19    2
    17    18    21    1
    18    21    22   ar
    19    22    23   ar
    20    23    24   ar
    21    24    25    1
    22    24    26   ar
    23    12    13   ar
    24    13    14   ar
    25    14    10   ar
    26     6     1   ar
    27    26    21   ar
    28     9     4    1
    29    17    20    1
@<TRIPOS>MOLECULE
*****
 26 29 0 0 0
SMALL
GASTEIGER

@<TRIPOS>ATOM
      1 C          59.8493   89.0278    7.6683 C.ar    1  UNL1        0.0388
      2 C          59.5926   87.5516    7.7388 C.ar    1  UNL1        0.0029
      3 C          60.2422   86.7279    8.8109 C.ar    1  UNL1       -0.0029
      4 C          61.1484   87.3803    9.8125 C.ar    1  UNL1       -0.0084
      5 C          61.4051   88.8564    9.7419 C.ar    1  UNL1       -0.0244
      6 C          60.7555   89.6802    8.6699 C.ar    1  UNL1       -0.0014
      7 C          62.3387   89.2184   10.8588 C.3     1  UNL1        0.0281
      8 C          62.6590   87.9660   11.6196 C.3     1  UNL1        0.0288
      9 C          61.9234   86.8299   10.9729 C.3     1  UNL1        0.0944
     10 C          58.8722   91.3805    4.7398 C.ar    1  UNL1        0.2366
     11 N          59.9053   90.7584    5.6318 N.ar    1  UNL1       -0.1907
     12 C          59.1997   89.8516    6.5962 C.ar    1  UNL1        0.2033
     13 N          57.7305   89.9134    6.3002 N.ar    1  UNL1       -0.0560
     14 O          57.5281   90.8582    5.1529 O.2     1  UNL1       -0.3370
     15 C          60.5466   92.6485    3.2105 C.3     1  UNL1        0.0103
     16 C          59.1368   92.3540    3.6297 C.3     1  UNL1        0.0881
     17 N          61.9569   85.3954   11.4100 N.am    1  UNL1       -0.2986
     18 C          62.7147   85.0049   12.6441 C.2     1  UNL1        0.2491
     19 O          63.4390   86.0489   13.4412 O.2     1  UNL1       -0.2700
     20 H          61.4815   84.7102   10.8868 H       1  UNL1        0.1500
     21 C          62.7482   83.5704   13.0812 C.ar    1  UNL1        0.0929
     22 C          62.9621   83.0805   14.4827 C.ar    1  UNL1        0.1262
     23 N          62.9198   81.5812   14.4612 N.ar    1  UNL1       -0.1674
     24 N          62.6798   81.1445   13.0464 N.ar    1  UNL1       -0.2472
     25 C          62.5658   79.7273   12.5683 C.3     1  UNL1        0.1538
     26 C          62.5737   82.3739   12.1935 C.ar    1  UNL1        0.1012
@<TRIPOS>BOND
     1    15    16    1
     2    16    10    1
     3    10    11   ar
     4    11    12   ar
     5    12     1    1
     6     1     2   ar
     7     2     3   ar
     8     3     4   ar
     9     4     5   ar
    10     5     6   ar
    11     5     7    1
    12     7     8    1
    13     8     9    1
    14     9    17    1
    15    17    18   am
    16    18    19    2
    17    18    21    1
    18    21    22   ar
    19    22    23   ar
    20    23    24   ar
    21    24    25    1
    22    24    26   ar
    23    12    13   ar
    24    13    14   ar
    25    14    10   ar
    26     6     1   ar
    27    26    21   ar
    28     9     4    1
    29    17    20    1
@<TRIPOS>MOLECULE
*****
 26 29 0 0 0
SMALL
GASTEIGER

@<TRIPOS>ATOM
      1 C          64.7810   91.2470   13.7598 C.ar    1  UNL1        0.0388
      2 C          64.5822   90.0367   12.8964 C.ar    1  UNL1        0.0029
      3 C          64.0424   88.7706   13.4927 C.ar    1  UNL1       -0.0029
      4 C          63.7014   88.7148   14.9524 C.ar    1  UNL1       -0.0084
      5 C          63.9002   89.9252   15.8158 C.ar    1  UNL1       -0.0244
      6 C          64.4400   91.1913   15.2195 C.ar    1  UNL1       -0.0014
      7 C          63.4780   89.5733   17.2114 C.3     1  UNL1        0.0281
      8 C          63.0183   88.1455   17.2106 C.3     1  UNL1        0.0288
      9 C          63.1563   87.6149   15.8144 C.3     1  UNL1        0.0944
     10 C          65.9561   94.2230   11.5624 C.ar    1  UNL1        0.2366
     11 N          65.3220   92.8713   11.7069 N.ar    1  UNL1       -0.1907
     12 C          65.3208   92.5133   13.1636 C.ar    1  UNL1        0.2033
     13 N          65.9540   93.6437   13.9193 N.ar    1  UNL1       -0.0560
     14 O          66.3467   94.7003   12.9297 O.2     1  UNL1       -0.3370
     15 C          67.4786   94.8762    9.5611 C.3     1  UNL1        0.0103
     16 C          66.1632   94.9667   10.2763 C.3     1  UNL1        0.0881
     17 N          62.8101   86.2279   15.3600 N.am    1  UNL1       -0.2986
     18 C          63.8916   85.3010   14.8898 C.2     1  UNL1        0.2491
     19 O          65.3192   85.7610   14.8739 O.2     1  UNL1       -0.2700
     20 H          61.8731   85.9260   15.3704 H       1  UNL1        0.1500
     21 C          63.5455   83.9140   14.4354 C.ar    1  UNL1        0.0929
     22 C          64.4134   83.0161   13.6043 C.ar    1  UNL1        0.1262
     23 N          63.6750   81.7286   13.3876 N.ar    1  UNL1       -0.1674
     24 N          62.3507   81.8307   14.0847 N.ar    1  UNL1       -0.2472
     25 C          61.2922   80.7686   14.1269 C.3     1  UNL1        0.1538
     26 C          62.2707   83.1814   14.7323 C.ar    1  UNL1        0.1012
@<TRIPOS>BOND
     1    15    16    1
     2    16    10    1
     3    10    11   ar
     4    11    12   ar
     5    12     1    1
     6     1     2   ar
     7     2     3   ar
     8     3     4   ar
     9     4     5   ar
    10     5     6   ar
    11     5     7    1
    12     7     8    1
    13     8     9    1
    14     9    17    1
    15    17    18   am
    16    18    19    2
    17    18    21    1
    18    21    22   ar
    19    22    23   ar
    20    23    24   ar
    21    24    25    1
    22    24    26   ar
    23    12    13   ar
    24    13    14   ar
    25    14    10   ar
    26     6     1   ar
    27    26    21   ar
    28     9     4    1
    29    17    20    1
