@<TRIPOS>MOLECULE
*****
 17 18 0 0 0
SMALL
GASTEIGER

@<TRIPOS>ATOM
      1 C          63.9218   90.0599   15.1034 C.2     1  UNL1        0.1223
      2 C          63.3419   89.8900   16.4762 C.2     1  UNL1        0.0343
      3 C          63.0707   88.5151   17.0110 C.2     1  UNL1        0.0232
      4 C          63.3794   87.3100   16.1729 C.2     1  UNL1        0.0975
      5 N          63.2209   85.8409   16.4306 N.2     1  UNL1       -0.2200
      6 C          63.7029   85.1027   15.2170 C.2     1  UNL1        0.1898
      7 N          64.1593   86.1157   14.2092 N.2     1  UNL1       -0.2236
      8 C          63.9594   87.4799   14.8001 C.2     1  UNL1        0.0863
      9 C          64.2306   88.8548   14.2653 C.3     1  UNL1        0.1112
     10 C          64.9936   91.6064   13.3118 C.3     1  UNL1        0.2520
     11 O          64.1930   91.4349   14.5686 O.2     1  UNL1       -0.4753
     12 S          63.7246   83.6131   15.0419 S.3     1  UNL1       -0.0757
     13 C          62.4861   82.8919   14.5991 C.3     1  UNL1        0.0651
     14 C          62.5928   81.7190   13.6702 C.3     1  UNL1        0.0104
     15 C          63.9138   82.2301   13.1766 C.3     1  UNL1        0.0009
     16 C          61.2717   81.2079   14.1639 C.3     1  UNL1        0.0009
     17 C          62.6995   80.5461   12.7413 C.3     1  UNL1        0.0009
@<TRIPOS>BOND
     1    10    11    1
     2    11     1    1
     3     1     2    2
     4     2     3    1
     5     3     4    2
     6     4     5    1
     7     5     6    2
     8     6    12    1
     9    12    13    1
    10    13    14    1
    11    14    15    1
    12    14    16    1
    13    14    17    1
    14     6     7    1
    15     7     8    2
    16     8     9    1
    17     9     1    1
    18     8     4    1
@<TRIPOS>MOLECULE
*****
 17 18 0 0 0
SMALL
GASTEIGER

@<TRIPOS>ATOM
      1 C          64.9559   91.5418   13.7447 C.2     1  UNL1        0.1223
      2 C          64.9140   90.3004   14.5856 C.2     1  UNL1        0.0343
      3 C          64.1894   89.0837   14.0911 C.2     1  UNL1        0.0232
      4 C          63.5066   89.1083   12.7558 C.2     1  UNL1        0.0975
      5 N          62.7209   88.0702   12.0109 N.2     1  UNL1       -0.2200
      6 C          62.2772   88.6700   10.7096 C.2     1  UNL1        0.1898
      7 N          62.7887   90.0788   10.6502 N.2     1  UNL1       -0.2236
      8 C          63.5486   90.3497   11.9149 C.2     1  UNL1        0.0863
      9 C          64.2732   91.5664   12.4093 C.3     1  UNL1        0.1112
     10 C          66.4346   93.6257   13.2752 C.3     1  UNL1        0.2520
     11 O          65.6806   92.7585   14.2391 O.2     1  UNL1       -0.4753
     12 S          61.4646   87.9817    9.6531 S.3     1  UNL1       -0.0757
     13 C          61.4246   86.4833    9.5952 C.3     1  UNL1        0.0651
     14 C          61.5850   85.7790    8.2806 C.3     1  UNL1        0.0104
     15 C          60.1852   86.1639    7.9035 C.3     1  UNL1        0.0009
     16 C          62.9849   85.3941    8.6577 C.3     1  UNL1        0.0009
     17 C          61.7454   85.0747    6.9660 C.3     1  UNL1        0.0009
@<TRIPOS>BOND
     1    10    11    1
     2    11     1    1
     3     1     2    2
     4     2     3    1
     5     3     4    2
     6     4     5    1
     7     5     6    2
     8     6    12    1
     9    12    13    1
    10    13    14    1
    11    14    15    1
    12    14    16    1
    13    14    17    1
    14     6     7    1
    15     7     8    2
    16     8     9    1
    17     9     1    1
    18     8     4    1
@<TRIPOS>MOLECULE
*****
 17 18 0 0 0
SMALL
GASTEIGER

@<TRIPOS>ATOM
      1 C          60.2376   87.8875    8.6973 C.2     1  UNL1        0.1223
      2 C          60.8533   89.0814    9.3647 C.2     1  UNL1        0.0343
      3 C          61.7581   88.8963   10.5467 C.2     1  UNL1        0.0232
      4 C          62.0472   87.5173   11.0613 C.2     1  UNL1        0.0975
      5 N          62.8930   87.0274   12.1990 N.2     1  UNL1       -0.2200
      6 C          62.8000   85.5307   12.2349 C.2     1  UNL1        0.1898
      7 N          61.8967   85.0956   11.1192 N.2     1  UNL1       -0.2236
      8 C          61.4314   86.3234   10.3939 C.2     1  UNL1        0.0863
      9 C          60.5266   86.5085    9.2119 C.3     1  UNL1        0.1112
     10 C          59.3749   89.3507    6.7315 C.3     1  UNL1        0.2520
     11 O          59.3327   88.0726    7.5154 O.2     1  UNL1       -0.4753
     12 S          63.4893   84.6276   13.2144 S.3     1  UNL1       -0.0757
     13 C          63.5957   83.1581   12.9333 C.3     1  UNL1        0.0651
     14 C          62.5753   82.2116   13.4928 C.3     1  UNL1        0.0104
     15 C          62.5511   82.9941   14.7723 C.3     1  UNL1        0.0009
     16 C          62.5996   81.4291   12.2132 C.3     1  UNL1        0.0009
     17 C          61.5550   81.2652   14.0523 C.3     1  UNL1        0.0009
@<TRIPOS>BOND
     1    10    11    1
     2    11     1    1
     3     1     2    2
     4     2     3    1
     5     3     4    2
     6     4     5    1
     7     5     6    2
     8     6    12    1
     9    12    13    1
    10    13    14    1
    11    14    15    1
    12    14    16    1
    13    14    17    1
    14     6     7    1
    15     7     8    2
    16     8     9    1
    17     9     1    1
    18     8     4    1
@<TRIPOS>MOLECULE
*****
 17 18 0 0 0
SMALL
GASTEIGER

@<TRIPOS>ATOM
      1 C          60.6939   87.3237    9.3020 C.2     1  UNL1        0.1223
      2 C          61.4068   86.5241    8.2520 C.2     1  UNL1        0.0343
      3 C          62.3585   85.4369    8.6546 C.2     1  UNL1        0.0232
      4 C          62.5973   85.1491   10.1072 C.2     1  UNL1        0.0975
      5 N          63.4713   84.1471   10.8015 N.2     1  UNL1       -0.2200
      6 C          63.2985   84.3273   12.2806 C.2     1  UNL1        0.1898
      7 N          62.3178   85.4407   12.5005 N.2     1  UNL1       -0.2236
      8 C          61.8844   85.9487   11.1572 C.2     1  UNL1        0.0863
      9 C          60.9327   87.0359   10.7546 C.3     1  UNL1        0.1112
     10 C          59.3246   88.5490    7.4653 C.3     1  UNL1        0.2520
     11 O          59.7422   88.4109    8.8993 O.2     1  UNL1       -0.4753
     12 S          63.9859   83.5334   13.3518 S.3     1  UNL1       -0.0757
     13 C          63.7940   82.0474   13.4239 C.3     1  UNL1        0.0651
     14 C          62.4380   81.4799   13.7223 C.3     1  UNL1        0.0104
     15 C          62.6441   80.4329   12.6682 C.3     1  UNL1        0.0009
     16 C          62.2319   82.5270   14.7765 C.3     1  UNL1        0.0009
     17 C          61.0820   80.9124   14.0208 C.3     1  UNL1        0.0009
@<TRIPOS>BOND
     1    10    11    1
     2    11     1    1
     3     1     2    2
     4     2     3    1
     5     3     4    2
     6     4     5    1
     7     5     6    2
     8     6    12    1
     9    12    13    1
    10    13    14    1
    11    14    15    1
    12    14    16    1
    13    14    17    1
    14     6     7    1
    15     7     8    2
    16     8     9    1
    17     9     1    1
    18     8     4    1
@<TRIPOS>MOLECULE
*****
 17 18 0 0 0
SMALL
GASTEIGER

@<TRIPOS>ATOM
      1 C          65.7367   92.8134   12.2713 C.2     1  UNL1        0.1223
      2 C          65.6726   92.1235   13.6016 C.2     1  UNL1        0.0343
      3 C          64.7318   90.9730   13.8052 C.2     1  UNL1        0.0232
      4 C          63.8552   90.5125   12.6786 C.2     1  UNL1        0.0975
      5 N          62.8375   89.4148   12.5828 N.2     1  UNL1       -0.2200
      6 C          62.2726   89.4263   11.1933 C.2     1  UNL1        0.1898
      7 N          62.9412   90.5311   10.4302 N.2     1  UNL1       -0.2236
      8 C          63.9193   91.2025   11.3483 C.2     1  UNL1        0.0863
      9 C          64.8601   92.3529   11.1446 C.3     1  UNL1        0.1112
     10 C          66.2947   95.0938   11.1585 C.3     1  UNL1        0.2520
     11 O          66.6775   93.9638   12.0676 O.2     1  UNL1       -0.4753
     12 S          61.2233   88.4962   10.6604 S.3     1  UNL1       -0.0757
     13 C          61.5918   87.0965   10.2665 C.3     1  UNL1        0.0651
     14 C          61.1132   86.5340    8.9610 C.3     1  UNL1        0.0104
     15 C          59.8108   87.2596    9.1260 C.3     1  UNL1        0.0009
     16 C          62.4157   85.8085    8.7961 C.3     1  UNL1        0.0009
     17 C          60.6345   85.9716    7.6555 C.3     1  UNL1        0.0009
@<TRIPOS>BOND
     1    10    11    1
     2    11     1    1
     3     1     2    2
     4     2     3    1
     5     3     4    2
     6     4     5    1
     7     5     6    2
     8     6    12    1
     9    12    13    1
    10    13    14    1
    11    14    15    1
    12    14    16    1
    13    14    17    1
    14     6     7    1
    15     7     8    2
    16     8     9    1
    17     9     1    1
    18     8     4    1
@<TRIPOS>MOLECULE
*****
 17 18 0 0 0
SMALL
GASTEIGER

@<TRIPOS>ATOM
      1 C          65.1263   91.5941   13.4928 C.2     1  UNL1        0.1223
      2 C          65.3892   92.3534   12.2262 C.2     1  UNL1        0.0343
      3 C          64.5662   92.0789   11.0026 C.2     1  UNL1        0.0232
      4 C          63.4803   91.0450   11.0456 C.2     1  UNL1        0.0975
      5 N          62.5134   90.5611   10.0059 N.2     1  UNL1       -0.2200
      6 C          61.6529   89.5028   10.6300 C.2     1  UNL1        0.1898
      7 N          62.0880   89.3325   12.0553 N.2     1  UNL1       -0.2236
      8 C          63.2175   90.2857   12.3122 C.2     1  UNL1        0.0863
      9 C          64.0405   90.5602   13.5358 C.3     1  UNL1        0.1112
     10 C          66.7945   93.1057   14.7899 C.3     1  UNL1        0.2520
     11 O          65.9494   91.8687   14.7165 O.2     1  UNL1       -0.4753
     12 S          60.5507   88.7473    9.9483 S.3     1  UNL1       -0.0757
     13 C          60.5432   87.2475    9.9723 C.3     1  UNL1        0.0651
     14 C          60.6817   86.4762    8.6933 C.3     1  UNL1        0.0104
     15 C          62.0780   86.0872    9.0793 C.3     1  UNL1        0.0009
     16 C          59.2854   86.8653    8.3075 C.3     1  UNL1        0.0009
     17 C          60.8203   85.7049    7.4144 C.3     1  UNL1        0.0009
@<TRIPOS>BOND
     1    10    11    1
     2    11     1    1
     3     1     2    2
     4     2     3    1
     5     3     4    2
     6     4     5    1
     7     5     6    2
     8     6    12    1
     9    12    13    1
    10    13    14    1
    11    14    15    1
    12    14    16    1
    13    14    17    1
    14     6     7    1
    15     7     8    2
    16     8     9    1
    17     9     1    1
    18     8     4    1
@<TRIPOS>MOLECULE
*****
 17 18 0 0 0
SMALL
GASTEIGER

@<TRIPOS>ATOM
      1 C          63.6530   82.2826   12.4347 C.2     1  UNL1        0.1223
      2 C          64.1990   82.1668   11.0425 C.2     1  UNL1        0.0343
      3 C          63.9250   83.2458   10.0372 C.2     1  UNL1        0.0232
      4 C          63.1049   84.4406   10.4241 C.2     1  UNL1        0.0975
      5 N          62.6729   85.6534    9.6544 N.2     1  UNL1       -0.2200
      6 C          61.8598   86.5188   10.5709 C.2     1  UNL1        0.1898
      7 N          61.7893   85.8409   11.9071 N.2     1  UNL1       -0.2236
      8 C          62.5589   84.5565   11.8163 C.2     1  UNL1        0.0863
      9 C          62.8329   83.4775   12.8216 C.3     1  UNL1        0.1112
     10 C          62.8391   80.2468   13.8286 C.3     1  UNL1        0.2520
     11 O          63.9270   81.2036   13.4400 O.2     1  UNL1       -0.4753
     12 S          61.2281   87.8317   10.2138 S.3     1  UNL1       -0.0757
     13 C          59.8504   87.8646    9.6214 C.3     1  UNL1        0.0651
     14 C          59.6342   88.4504    8.2576 C.3     1  UNL1        0.0104
     15 C          59.0204   87.1603    7.8008 C.3     1  UNL1        0.0009
     16 C          60.2481   89.7406    8.7146 C.3     1  UNL1        0.0009
     17 C          59.4180   89.0362    6.8938 C.3     1  UNL1        0.0009
@<TRIPOS>BOND
     1    10    11    1
     2    11     1    1
     3     1     2    2
     4     2     3    1
     5     3     4    2
     6     4     5    1
     7     5     6    2
     8     6    12    1
     9    12    13    1
    10    13    14    1
    11    14    15    1
    12    14    16    1
    13    14    17    1
    14     6     7    1
    15     7     8    2
    16     8     9    1
    17     9     1    1
    18     8     4    1
@<TRIPOS>MOLECULE
*****
 17 18 0 0 0
SMALL
GASTEIGER

@<TRIPOS>ATOM
      1 C          63.7965   83.2022   11.8597 C.2     1  UNL1        0.1223
      2 C          64.1996   83.1316   10.4166 C.2     1  UNL1        0.0343
      3 C          63.6242   84.1027    9.4288 C.2     1  UNL1        0.0232
      4 C          62.6458   85.1445    9.8840 C.2     1  UNL1        0.0975
      5 N          61.9171   86.2279    9.1457 N.2     1  UNL1       -0.2200
      6 C          61.0637   86.9683   10.1325 C.2     1  UNL1        0.1898
      7 N          61.2649   86.3423   11.4807 N.2     1  UNL1       -0.2236
      8 C          62.2427   85.2152   11.3271 C.2     1  UNL1        0.0863
      9 C          62.8181   84.2440   12.3149 C.3     1  UNL1        0.1112
     10 C          63.4603   81.4152   13.7153 C.3     1  UNL1        0.2520
     11 O          64.3719   82.2311   12.8475 O.2     1  UNL1       -0.4753
     12 S          60.1666   88.1305    9.8249 S.3     1  UNL1       -0.0757
     13 C          60.7199   89.5247    9.8215 C.3     1  UNL1        0.0651
     14 C          61.5483   90.0057   10.9757 C.3     1  UNL1        0.0104
     15 C          62.7389   90.1255   10.0714 C.3     1  UNL1        0.0009
     16 C          60.3575   89.8859   11.8801 C.3     1  UNL1        0.0009
     17 C          62.3766   90.4867   12.1300 C.3     1  UNL1        0.0009
@<TRIPOS>BOND
     1    10    11    1
     2    11     1    1
     3     1     2    2
     4     2     3    1
     5     3     4    2
     6     4     5    1
     7     5     6    2
     8     6    12    1
     9    12    13    1
    10    13    14    1
    11    14    15    1
    12    14    16    1
    13    14    17    1
    14     6     7    1
    15     7     8    2
    16     8     9    1
    17     9     1    1
    18     8     4    1
@<TRIPOS>MOLECULE
*****
 17 18 0 0 0
SMALL
GASTEIGER

@<TRIPOS>ATOM
      1 C          63.1185   84.5279    9.2508 C.2     1  UNL1        0.1223
      2 C          64.0650   83.3866    9.4778 C.2     1  UNL1        0.0343
      3 C          64.3956   82.9529   10.8751 C.2     1  UNL1        0.0232
      4 C          63.7797   83.6606   12.0456 C.2     1  UNL1        0.0975
      5 N          63.9155   83.4584   13.5256 N.2     1  UNL1       -0.2200
      6 C          63.0530   84.4747   14.2134 C.2     1  UNL1        0.1898
      7 N          62.3841   85.3051   13.1585 N.2     1  UNL1       -0.2236
      8 C          62.8333   84.8019   11.8186 C.2     1  UNL1        0.0863
      9 C          62.5026   85.2356   10.4212 C.3     1  UNL1        0.1112
     10 C          61.4423   85.5505    7.5495 C.3     1  UNL1        0.2520
     11 O          62.7879   84.9616    7.8535 O.2     1  UNL1       -0.4753
     12 S          62.8883   84.6329   15.6960 S.3     1  UNL1       -0.0757
     13 C          63.7866   85.5637   16.4553 C.3     1  UNL1        0.0651
     14 C          63.3707   86.9865   16.6848 C.3     1  UNL1        0.0104
     15 C          64.1200   87.4040   15.4542 C.3     1  UNL1        0.0009
     16 C          62.6215   86.5689   17.9154 C.3     1  UNL1        0.0009
     17 C          62.9548   88.4093   16.9143 C.3     1  UNL1        0.0009
@<TRIPOS>BOND
     1    10    11    1
     2    11     1    1
     3     1     2    2
     4     2     3    1
     5     3     4    2
     6     4     5    1
     7     5     6    2
     8     6    12    1
     9    12    13    1
    10    13    14    1
    11    14    15    1
    12    14    16    1
    13    14    17    1
    14     6     7    1
    15     7     8    2
    16     8     9    1
    17     9     1    1
    18     8     4    1
