@<TRIPOS>MOLECULE
*****
 40 44 0 0 0
SMALL
GASTEIGER

@<TRIPOS>ATOM
      1 C          59.7267   90.0344    6.4241 C.2     1  UNL1        0.0332
      2 C          58.3148   90.4550    6.1424 C.2     1  UNL1        0.0101
      3 C          58.0211   91.3749    4.9945 C.2     1  UNL1        0.0255
      4 C          56.6090   91.7956    4.7128 C.3     1  UNL1        0.0351
      5 C          59.1394   91.8742    4.1284 C.2     1  UNL1        0.2278
      6 N          59.1558   92.7834    2.9355 N.2     1  UNL1       -0.0345
      7 C          60.5780   92.9246    2.4800 C.2     1  UNL1        0.3649
      8 N          61.4405   92.1027    3.3914 N.2     1  UNL1       -0.0380
      9 C          60.5514   91.4535    4.4102 C.2     1  UNL1        0.2184
     10 C          60.8450   90.5336    5.5580 C.3     1  UNL1        0.1186
     11 C          61.0541   93.7439    1.3172 C.3     1  UNL1        0.2250
     12 C          60.1021   94.1089    0.2170 C.2     1  UNL1        0.0436
     13 C          60.5784   94.9283   -0.9457 C.2     1  UNL1        0.0288
     14 C          62.0065   95.3826   -1.0083 C.2     1  UNL1        0.0896
     15 N          62.9585   95.0176    0.0919 N.am    1  UNL1       -0.1770
     16 C          62.4823   94.1983    1.2547 C.2     1  UNL1        0.2627
     17 O          63.4343   93.8333    2.3549 O.2     1  UNL1       -0.2719
     18 N          58.6740   93.6547    0.2795 N.pl3   1  UNL1       -0.3329
     19 H          58.3385   93.1945    1.0826 H       1  UNL1        0.1466
     20 C          57.7569   93.9015   -0.8815 C.3     1  UNL1        0.1211
     21 C          57.3183   92.7577   -1.7472 C.3     1  UNL1        0.1522
     22 O          56.7840   91.5043   -1.1199 O.3     1  UNL1       -0.3783
     23 H          56.7896   91.5981   -0.1545 H       1  UNL1        0.2109
     24 C          57.4140   92.8674   -3.2401 C.ar    1  UNL1        0.0067
     25 C          58.4344   93.7743   -3.8617 C.ar    1  UNL1       -0.0018
     26 C          58.5300   93.8839   -5.3546 C.ar    1  UNL1        0.0006
     27 C          57.6053   93.0868   -6.2260 C.ar    1  UNL1        0.0114
     28 C          56.5849   92.1799   -5.6044 C.ar    1  UNL1        0.0574
     29 CL         55.6602   91.3827   -6.4758 Cl      1  UNL1       -0.0823
     30 C          56.4892   92.0702   -4.1115 C.ar    1  UNL1        0.0095
     31 N          60.6078   87.2746    9.8676 N.3     1  UNL1       -0.2676
     32 C          60.0131   86.7297    8.6029 C.3     1  UNL1        0.0939
     33 C          59.7194   87.6496    7.4551 C.3     1  UNL1        0.1079
     34 N          60.0204   89.1145    7.5720 N.pl3   1  UNL1       -0.3076
     35 C          60.6151   89.6593    8.8366 C.3     1  UNL1        0.1079
     36 C          60.9088   88.7394    9.9845 C.3     1  UNL1        0.0939
     37 C          60.9015   86.3547   11.0154 C.3     1  UNL1        0.1046
     38 C          62.2938   85.8375   11.2247 C.3     1  UNL1        0.1595
     39 C          63.2510   84.7044   13.3578 C.3     1  UNL1        0.1742
     40 O          62.9388   85.9451   12.5747 O.3     1  UNL1       -0.3496
@<TRIPOS>BOND
     1    39    40    1
     2    40    38    1
     3    38    37    1
     4    37    31    1
     5    31    32    1
     6    32    33    1
     7    33    34    1
     8    34     1    1
     9     1     2    2
    10     2     3    1
    11     3     4    1
    12     3     5    2
    13     5     6    1
    14     6     7    2
    15     7    11    1
    16    11    12    1
    17    12    18    1
    18    18    20    1
    19    20    21    1
    20    21    22    1
    21    21    24    1
    22    24    25   ar
    23    25    26   ar
    24    26    27   ar
    25    27    28   ar
    26    28    29    1
    27    28    30   ar
    28    12    13    2
    29    13    14    1
    30    14    15    2
    31    15    16    1
    32    16    17    2
    33     7     8    1
    34     8     9    2
    35     9    10    1
    36    34    35    1
    37    35    36    1
    38    36    31    1
    39    10     1    1
    40     9     5    1
    41    16    11    1
    42    30    24   ar
    43    18    19    1
    44    22    23    1
@<TRIPOS>MOLECULE
*****
 40 44 0 0 0
SMALL
GASTEIGER

@<TRIPOS>ATOM
      1 C          62.1712   93.3634    1.4548 C.2     1  UNL1        0.0332
      2 C          63.1599   94.4404    1.7899 C.2     1  UNL1        0.0101
      3 C          63.9761   95.0741    0.7026 C.2     1  UNL1        0.0255
      4 C          64.9649   96.1512    1.0378 C.3     1  UNL1        0.0351
      5 C          63.8036   94.6306   -0.7199 C.2     1  UNL1        0.2278
      6 N          64.4626   95.0678   -1.9945 N.2     1  UNL1       -0.0345
      7 C          63.8811   94.2610   -3.1174 C.2     1  UNL1        0.3649
      8 N          62.8627   93.3251   -2.5368 N.2     1  UNL1       -0.0380
      9 C          62.8148   93.5535   -1.0551 C.2     1  UNL1        0.2184
     10 C          61.9986   92.9199    0.0323 C.3     1  UNL1        0.1186
     11 C          64.2527   94.3707   -4.5665 C.3     1  UNL1        0.2250
     12 C          63.9021   95.6078   -5.3390 C.2     1  UNL1        0.0436
     13 C          64.2738   95.7174   -6.7882 C.2     1  UNL1        0.0288
     14 C          64.9960   94.5901   -7.4647 C.2     1  UNL1        0.0896
     15 N          65.3465   93.3531   -6.6921 N.am    1  UNL1       -0.1770
     16 C          64.9748   93.2435   -5.2430 C.2     1  UNL1        0.2627
     17 O          65.3254   92.0064   -4.4704 O.2     1  UNL1       -0.2719
     18 N          63.1800   96.7351   -4.6626 N.pl3   1  UNL1       -0.3329
     19 H          63.6837   97.3958   -4.1345 H       1  UNL1        0.1466
     20 C          61.6904   96.8557   -4.7907 C.3     1  UNL1        0.1211
     21 C          60.8029   95.7555   -4.2889 C.3     1  UNL1        0.1522
     22 O          60.3405   94.6788   -5.2253 O.3     1  UNL1       -0.3783
     23 H          60.7028   94.8423   -6.1101 H       1  UNL1        0.2109
     24 C          60.3778   95.7320   -2.8506 C.ar    1  UNL1        0.0067
     25 C          60.9625   96.7143   -1.8795 C.ar    1  UNL1       -0.0018
     26 C          60.5375   96.6908   -0.4412 C.ar    1  UNL1        0.0006
     27 C          59.5277   95.6849    0.0261 C.ar    1  UNL1        0.0114
     28 C          58.9430   94.7025   -0.9449 C.ar    1  UNL1        0.0574
     29 CL         57.9332   93.6965   -0.4776 Cl      1  UNL1       -0.0823
     30 C          59.3681   94.7260   -2.3833 C.ar    1  UNL1        0.0095
     31 N          59.7224   91.4626    4.7168 N.3     1  UNL1       -0.2676
     32 C          59.0651   92.3637    3.7138 C.3     1  UNL1        0.0939
     33 C          59.8814   92.9973    2.6265 C.3     1  UNL1        0.1079
     34 N          61.3549   92.7298    2.5422 N.pl3   1  UNL1       -0.3076
     35 C          62.0121   91.8287    3.5451 C.3     1  UNL1        0.1079
     36 C          61.1959   91.1951    4.6325 C.3     1  UNL1        0.0939
     37 C          58.9061   90.8290    5.8041 C.3     1  UNL1        0.1046
     38 C          59.2168   89.4338    6.2589 C.3     1  UNL1        0.1595
     39 C          59.5628   87.8731    8.3070 C.3     1  UNL1        0.1742
     40 O          59.7664   89.1985    7.6347 O.3     1  UNL1       -0.3496
@<TRIPOS>BOND
     1    39    40    1
     2    40    38    1
     3    38    37    1
     4    37    31    1
     5    31    32    1
     6    32    33    1
     7    33    34    1
     8    34     1    1
     9     1     2    2
    10     2     3    1
    11     3     4    1
    12     3     5    2
    13     5     6    1
    14     6     7    2
    15     7    11    1
    16    11    12    1
    17    12    18    1
    18    18    20    1
    19    20    21    1
    20    21    22    1
    21    21    24    1
    22    24    25   ar
    23    25    26   ar
    24    26    27   ar
    25    27    28   ar
    26    28    29    1
    27    28    30   ar
    28    12    13    2
    29    13    14    1
    30    14    15    2
    31    15    16    1
    32    16    17    2
    33     7     8    1
    34     8     9    2
    35     9    10    1
    36    34    35    1
    37    35    36    1
    38    36    31    1
    39    10     1    1
    40     9     5    1
    41    16    11    1
    42    30    24   ar
    43    18    19    1
    44    22    23    1
@<TRIPOS>MOLECULE
*****
 40 44 0 0 0
SMALL
GASTEIGER

@<TRIPOS>ATOM
      1 C          60.1657   88.9708    8.3431 C.2     1  UNL1        0.0332
      2 C          59.6117   89.3600    9.6815 C.2     1  UNL1        0.0101
      3 C          59.9922   88.5815   10.9060 C.2     1  UNL1        0.0255
      4 C          59.4381   88.9708   12.2445 C.3     1  UNL1        0.0351
      5 C          60.9267   87.4138   10.7919 C.2     1  UNL1        0.2278
      6 N          61.4776   86.4654   11.8151 N.2     1  UNL1       -0.0345
      7 C          62.3720   85.4900   11.1090 C.2     1  UNL1        0.3649
      8 N          62.3740   85.8356    9.6494 N.2     1  UNL1       -0.0380
      9 C          61.4807   87.0246    9.4533 C.2     1  UNL1        0.2184
     10 C          61.1002   87.8031    8.2290 C.3     1  UNL1        0.1186
     11 C          63.1313   84.3663   11.7500 C.3     1  UNL1        0.2250
     12 C          63.5479   84.4667   13.1875 C.2     1  UNL1        0.0436
     13 C          64.3072   83.3429   13.8284 C.2     1  UNL1        0.0288
     14 C          64.6498   82.1189   13.0319 C.2     1  UNL1        0.0896
     15 N          64.2331   82.0185   11.5945 N.am    1  UNL1       -0.1770
     16 C          63.4739   83.1423   10.9535 C.2     1  UNL1        0.2627
     17 O          63.0572   83.0420    9.5161 O.2     1  UNL1       -0.2719
     18 N          63.2054   85.6906   13.9840 N.pl3   1  UNL1       -0.3329
     19 H          62.2726   85.8598   14.2498 H       1  UNL1        0.1466
     20 C          64.2838   86.6568   14.3757 C.3     1  UNL1        0.1211
     21 C          63.9202   88.0094   14.9126 C.3     1  UNL1        0.1522
     22 O          63.3555   88.1401   16.2960 O.3     1  UNL1       -0.3783
     23 H          63.2909   87.2621   16.7032 H       1  UNL1        0.2109
     24 C          64.1214   89.2312   14.0660 C.ar    1  UNL1        0.0067
     25 C          65.0413   90.3216   14.5293 C.ar    1  UNL1       -0.0018
     26 C          65.2425   91.5434   13.6827 C.ar    1  UNL1        0.0006
     27 C          64.5237   91.6748   12.3727 C.ar    1  UNL1        0.0114
     28 C          63.6038   90.5844   11.9094 C.ar    1  UNL1        0.0574
     29 CL         62.8850   90.7159   10.5994 Cl      1  UNL1       -0.0823
     30 C          63.4026   89.3626   12.7560 C.ar    1  UNL1        0.0095
     31 N          59.0241   91.3063    4.6699 N.3     1  UNL1       -0.2676
     32 C          57.9607   90.6663    5.5123 C.3     1  UNL1        0.0939
     33 C          58.3412   89.8878    6.7367 C.3     1  UNL1        0.1079
     34 N          59.7852   89.7493    7.1186 N.pl3   1  UNL1       -0.3076
     35 C          60.8485   90.3893    6.2763 C.3     1  UNL1        0.1079
     36 C          60.4680   91.1678    5.0518 C.3     1  UNL1        0.0939
     37 C          58.6435   92.0847    3.4455 C.3     1  UNL1        0.1046
     38 C          59.7055   92.7409    2.6138 C.3     1  UNL1        0.1595
     39 C          60.4466   95.0568    1.6987 C.3     1  UNL1        0.1742
     40 O          60.0637   94.1779    2.8524 O.3     1  UNL1       -0.3496
@<TRIPOS>BOND
     1    39    40    1
     2    40    38    1
     3    38    37    1
     4    37    31    1
     5    31    32    1
     6    32    33    1
     7    33    34    1
     8    34     1    1
     9     1     2    2
    10     2     3    1
    11     3     4    1
    12     3     5    2
    13     5     6    1
    14     6     7    2
    15     7    11    1
    16    11    12    1
    17    12    18    1
    18    18    20    1
    19    20    21    1
    20    21    22    1
    21    21    24    1
    22    24    25   ar
    23    25    26   ar
    24    26    27   ar
    25    27    28   ar
    26    28    29    1
    27    28    30   ar
    28    12    13    2
    29    13    14    1
    30    14    15    2
    31    15    16    1
    32    16    17    2
    33     7     8    1
    34     8     9    2
    35     9    10    1
    36    34    35    1
    37    35    36    1
    38    36    31    1
    39    10     1    1
    40     9     5    1
    41    16    11    1
    42    30    24   ar
    43    18    19    1
    44    22    23    1
@<TRIPOS>MOLECULE
*****
 40 44 0 0 0
SMALL
GASTEIGER

@<TRIPOS>ATOM
      1 C          60.2186   88.9291    8.3510 C.2     1  UNL1        0.0332
      2 C          59.7766   89.3663    9.7160 C.2     1  UNL1        0.0101
      3 C          60.1536   88.5570   10.9215 C.2     1  UNL1        0.0255
      4 C          59.7116   88.9943   12.2866 C.3     1  UNL1        0.0351
      5 C          60.9727   87.3106   10.7618 C.2     1  UNL1        0.2278
      6 N          61.4928   86.3170   11.7578 N.2     1  UNL1       -0.0345
      7 C          62.2563   85.2656   11.0083 C.2     1  UNL1        0.3649
      8 N          62.2081   85.6095    9.5491 N.2     1  UNL1       -0.0380
      9 C          61.4147   86.8734    9.3967 C.2     1  UNL1        0.2184
     10 C          61.0377   87.6826    8.1913 C.3     1  UNL1        0.1186
     11 C          62.9469   84.0788   11.6120 C.3     1  UNL1        0.2250
     12 C          62.8449   83.8214   13.0863 C.2     1  UNL1        0.0436
     13 C          63.5355   82.6345   13.6899 C.2     1  UNL1        0.0288
     14 C          64.3281   81.7050   12.8194 C.2     1  UNL1        0.0896
     15 N          64.4301   81.9623   11.3452 N.am    1  UNL1       -0.1770
     16 C          63.7395   83.1492   10.7415 C.2     1  UNL1        0.2627
     17 O          63.8415   83.4066    9.2673 O.2     1  UNL1       -0.2719
     18 N          62.0524   84.7509   13.9568 N.pl3   1  UNL1       -0.3329
     19 H          61.2129   85.1421   13.6230 H       1  UNL1        0.1466
     20 C          62.5389   85.0844   15.3360 C.3     1  UNL1        0.1211
     21 C          63.8060   85.8667   15.5155 C.3     1  UNL1        0.1522
     22 O          65.1230   85.1532   15.5958 O.3     1  UNL1       -0.3783
     23 H          64.9784   84.1975   15.5149 H       1  UNL1        0.2109
     24 C          63.7562   87.3626   15.6148 C.ar    1  UNL1        0.0067
     25 C          63.1400   88.0144   16.8171 C.ar    1  UNL1       -0.0018
     26 C          63.0901   89.5102   16.9164 C.ar    1  UNL1        0.0006
     27 C          63.6565   90.3544   15.8134 C.ar    1  UNL1        0.0114
     28 C          64.2727   89.7026   14.6111 C.ar    1  UNL1        0.0574
     29 CL         64.8390   90.5468   13.5081 Cl      1  UNL1       -0.0823
     30 C          64.3225   88.2068   14.5118 C.ar    1  UNL1        0.0095
     31 N          59.0878   91.3567    4.7347 N.3     1  UNL1       -0.2676
     32 C          60.5329   91.1696    5.0905 C.3     1  UNL1        0.0939
     33 C          60.9098   90.3604    6.2959 C.3     1  UNL1        0.1079
     34 N          59.8416   89.7383    7.1455 N.pl3   1  UNL1       -0.3076
     35 C          58.3966   89.9254    6.7898 C.3     1  UNL1        0.1079
     36 C          58.0196   90.7346    5.5843 C.3     1  UNL1        0.0939
     37 C          58.7108   92.1659    3.5292 C.3     1  UNL1        0.1046
     38 C          59.7791   92.7179    2.6325 C.3     1  UNL1        0.1595
     39 C          59.1375   93.6733    0.3032 C.3     1  UNL1        0.1742
     40 O          59.4822   93.8915    1.7466 O.3     1  UNL1       -0.3496
@<TRIPOS>BOND
     1    39    40    1
     2    40    38    1
     3    38    37    1
     4    37    31    1
     5    31    32    1
     6    32    33    1
     7    33    34    1
     8    34     1    1
     9     1     2    2
    10     2     3    1
    11     3     4    1
    12     3     5    2
    13     5     6    1
    14     6     7    2
    15     7    11    1
    16    11    12    1
    17    12    18    1
    18    18    20    1
    19    20    21    1
    20    21    22    1
    21    21    24    1
    22    24    25   ar
    23    25    26   ar
    24    26    27   ar
    25    27    28   ar
    26    28    29    1
    27    28    30   ar
    28    12    13    2
    29    13    14    1
    30    14    15    2
    31    15    16    1
    32    16    17    2
    33     7     8    1
    34     8     9    2
    35     9    10    1
    36    34    35    1
    37    35    36    1
    38    36    31    1
    39    10     1    1
    40     9     5    1
    41    16    11    1
    42    30    24   ar
    43    18    19    1
    44    22    23    1
@<TRIPOS>MOLECULE
*****
 40 44 0 0 0
SMALL
GASTEIGER

@<TRIPOS>ATOM
      1 C          61.9102   92.9695    1.5576 C.2     1  UNL1        0.0332
      2 C          63.2145   93.6737    1.7869 C.2     1  UNL1        0.0101
      3 C          63.9684   94.2529    0.6265 C.2     1  UNL1        0.0255
      4 C          65.2728   94.9571    0.8559 C.3     1  UNL1        0.0351
      5 C          63.4177   94.1279   -0.7631 C.2     1  UNL1        0.2278
      6 N          63.9324   94.5948   -2.0924 N.2     1  UNL1       -0.0345
      7 C          62.9460   94.1792   -3.1433 C.2     1  UNL1        0.3649
      8 N          61.8218   93.4554   -2.4635 N.2     1  UNL1       -0.0380
      9 C          62.1133   93.4236   -0.9924 C.2     1  UNL1        0.2184
     10 C          61.3596   92.8445    0.1679 C.3     1  UNL1        0.1186
     11 C          63.0633   94.4414   -4.6155 C.3     1  UNL1        0.2250
     12 C          62.0263   95.2693   -5.3148 C.2     1  UNL1        0.0436
     13 C          62.1436   95.5315   -6.7871 C.2     1  UNL1        0.0288
     14 C          63.2979   94.9656   -7.5601 C.2     1  UNL1        0.0896
     15 N          64.3349   94.1377   -6.8608 N.am    1  UNL1       -0.1770
     16 C          64.2176   93.8755   -5.3885 C.2     1  UNL1        0.2627
     17 O          65.2546   93.0476   -4.6892 O.2     1  UNL1       -0.2719
     18 N          60.8720   95.8352   -4.5420 N.pl3   1  UNL1       -0.3329
     19 H          61.0170   96.2058   -3.6415 H       1  UNL1        0.1466
     20 C          59.4968   95.8363   -5.1410 C.3     1  UNL1        0.1211
     21 C          58.6910   94.5715   -5.1715 C.3     1  UNL1        0.1522
     22 O          58.5474   93.8044   -6.4525 O.3     1  UNL1       -0.3783
     23 H          59.0332   94.2594   -7.1580 H       1  UNL1        0.2109
     24 C          58.0288   94.0739   -3.9210 C.ar    1  UNL1        0.0067
     25 C          58.7229   93.0644   -3.0554 C.ar    1  UNL1       -0.0018
     26 C          58.0607   92.5667   -1.8049 C.ar    1  UNL1        0.0006
     27 C          56.7042   93.0785   -1.4199 C.ar    1  UNL1        0.0114
     28 C          56.0101   94.0880   -2.2855 C.ar    1  UNL1        0.0574
     29 CL         54.6537   94.5997   -1.9004 Cl      1  UNL1       -0.0823
     30 C          56.6724   94.5856   -3.5360 C.ar    1  UNL1        0.0095
     31 N          59.6488   91.2319    5.0386 N.3     1  UNL1       -0.2676
     32 C          61.0980   90.8973    4.8433 C.3     1  UNL1        0.0939
     33 C          61.8517   91.4765    3.6830 C.3     1  UNL1        0.1079
     34 N          61.1564   92.3903    2.7179 N.pl3   1  UNL1       -0.3076
     35 C          59.7074   92.7250    2.9132 C.3     1  UNL1        0.1079
     36 C          58.9535   92.1458    4.0735 C.3     1  UNL1        0.0939
     37 C          58.8951   90.6527    6.1989 C.3     1  UNL1        0.1046
     38 C          59.2727   89.3063    6.7417 C.3     1  UNL1        0.1595
     39 C          59.9112   87.8924    8.8257 C.3     1  UNL1        0.1742
     40 O          59.9299   89.1970    8.0857 O.3     1  UNL1       -0.3496
@<TRIPOS>BOND
     1    39    40    1
     2    40    38    1
     3    38    37    1
     4    37    31    1
     5    31    32    1
     6    32    33    1
     7    33    34    1
     8    34     1    1
     9     1     2    2
    10     2     3    1
    11     3     4    1
    12     3     5    2
    13     5     6    1
    14     6     7    2
    15     7    11    1
    16    11    12    1
    17    12    18    1
    18    18    20    1
    19    20    21    1
    20    21    22    1
    21    21    24    1
    22    24    25   ar
    23    25    26   ar
    24    26    27   ar
    25    27    28   ar
    26    28    29    1
    27    28    30   ar
    28    12    13    2
    29    13    14    1
    30    14    15    2
    31    15    16    1
    32    16    17    2
    33     7     8    1
    34     8     9    2
    35     9    10    1
    36    34    35    1
    37    35    36    1
    38    36    31    1
    39    10     1    1
    40     9     5    1
    41    16    11    1
    42    30    24   ar
    43    18    19    1
    44    22    23    1
@<TRIPOS>MOLECULE
*****
 40 44 0 0 0
SMALL
GASTEIGER

@<TRIPOS>ATOM
      1 C          63.3556   89.9436   11.3069 C.2     1  UNL1        0.0332
      2 C          62.1264   89.7643   10.4663 C.2     1  UNL1        0.0101
      3 C          61.4259   88.4382   10.4352 C.2     1  UNL1        0.0255
      4 C          60.1966   88.2589    9.5945 C.3     1  UNL1        0.0351
      5 C          61.9548   87.2915   11.2448 C.2     1  UNL1        0.2278
      6 N          61.4806   85.8784   11.4125 N.2     1  UNL1       -0.0345
      7 C          62.4169   85.1843   12.3567 C.2     1  UNL1        0.3649
      8 N          63.4697   86.1686   12.7727 N.2     1  UNL1       -0.0380
      9 C          63.1840   87.4709   12.0854 C.2     1  UNL1        0.2184
     10 C          63.8845   88.7970   12.1165 C.3     1  UNL1        0.1186
     11 C          62.3179   83.7567   12.8062 C.3     1  UNL1        0.2250
     12 C          61.9933   83.4414   14.2363 C.2     1  UNL1        0.0436
     13 C          61.8942   82.0137   14.6857 C.2     1  UNL1        0.0288
     14 C          62.1198   80.9013   13.7051 C.2     1  UNL1        0.0896
     15 N          62.4444   81.2166   12.2750 N.am    1  UNL1       -0.1770
     16 C          62.5434   82.6443   11.8256 C.2     1  UNL1        0.2627
     17 O          62.8680   82.9595   10.3955 O.2     1  UNL1       -0.2719
     18 N          61.7677   84.5538   15.2170 N.pl3   1  UNL1       -0.3329
     19 H          60.9325   85.0741   15.1876 H       1  UNL1        0.1466
     20 C          62.8147   84.8734   16.2425 C.3     1  UNL1        0.1211
     21 C          62.7672   86.1778   16.9815 C.3     1  UNL1        0.1522
     22 O          62.0831   86.2605   18.3138 O.3     1  UNL1       -0.3783
     23 H          61.7283   85.3891   18.5498 H       1  UNL1        0.2109
     24 C          63.4037   87.3996   16.3881 C.ar    1  UNL1        0.0067
     25 C          64.4706   87.2572   15.3434 C.ar    1  UNL1       -0.0018
     26 C          65.1072   88.4789   14.7500 C.ar    1  UNL1        0.0006
     27 C          64.6768   89.8432   15.2013 C.ar    1  UNL1        0.0114
     28 C          63.6099   89.9856   16.2460 C.ar    1  UNL1        0.0574
     29 CL         63.1796   91.3498   16.6973 Cl      1  UNL1       -0.0823
     30 C          62.9734   88.7638   16.8394 C.ar    1  UNL1        0.0095
     31 N          65.4570   93.9218   11.4002 N.3     1  UNL1       -0.2676
     32 C          64.7245   93.4893   10.1647 C.3     1  UNL1        0.0939
     33 C          64.0240   92.1632   10.1337 C.3     1  UNL1        0.1079
     34 N          64.0561   91.2697   11.3381 N.pl3   1  UNL1       -0.3076
     35 C          64.7886   91.7022   12.5734 C.3     1  UNL1        0.1079
     36 C          65.4891   93.0283   12.6046 C.3     1  UNL1        0.0939
     37 C          66.1575   95.2478   11.4312 C.3     1  UNL1        0.1046
     38 C          66.8032   95.7842   10.1881 C.3     1  UNL1        0.1595
     39 C          68.1496   93.7863    9.2159 C.3     1  UNL1        0.1742
     40 O          68.0992   95.2031    9.7056 O.3     1  UNL1       -0.3496
@<TRIPOS>BOND
     1    39    40    1
     2    40    38    1
     3    38    37    1
     4    37    31    1
     5    31    32    1
     6    32    33    1
     7    33    34    1
     8    34     1    1
     9     1     2    2
    10     2     3    1
    11     3     4    1
    12     3     5    2
    13     5     6    1
    14     6     7    2
    15     7    11    1
    16    11    12    1
    17    12    18    1
    18    18    20    1
    19    20    21    1
    20    21    22    1
    21    21    24    1
    22    24    25   ar
    23    25    26   ar
    24    26    27   ar
    25    27    28   ar
    26    28    29    1
    27    28    30   ar
    28    12    13    2
    29    13    14    1
    30    14    15    2
    31    15    16    1
    32    16    17    2
    33     7     8    1
    34     8     9    2
    35     9    10    1
    36    34    35    1
    37    35    36    1
    38    36    31    1
    39    10     1    1
    40     9     5    1
    41    16    11    1
    42    30    24   ar
    43    18    19    1
    44    22    23    1
@<TRIPOS>MOLECULE
*****
 40 44 0 0 0
SMALL
GASTEIGER

@<TRIPOS>ATOM
      1 C          60.1613   89.9446    6.7887 C.2     1  UNL1        0.0332
      2 C          59.3232   88.7210    7.0122 C.2     1  UNL1        0.0101
      3 C          59.5499   87.8678    8.2251 C.2     1  UNL1        0.0255
      4 C          58.7117   86.6441    8.4485 C.3     1  UNL1        0.0351
      5 C          60.6148   88.2385    9.2143 C.2     1  UNL1        0.2278
      6 N          61.0649   87.5955   10.4925 N.2     1  UNL1       -0.0345
      7 C          62.1813   88.4218   11.0590 C.2     1  UNL1        0.3649
      8 N          62.4211   89.5756   10.1308 N.2     1  UNL1       -0.0380
      9 C          61.4529   89.4623    8.9908 C.2     1  UNL1        0.2184
     10 C          61.2262   90.3153    7.7780 C.3     1  UNL1        0.1186
     11 C          62.9270   88.1433   12.3303 C.3     1  UNL1        0.2250
     12 C          63.4202   89.2805   13.1750 C.2     1  UNL1        0.0436
     13 C          64.1660   89.0019   14.4464 C.2     1  UNL1        0.0288
     14 C          64.4184   87.5863   14.8731 C.2     1  UNL1        0.0896
     15 N          63.9252   86.4491   14.0284 N.am    1  UNL1       -0.1770
     16 C          63.1795   86.7277   12.7570 C.2     1  UNL1        0.2627
     17 O          62.6863   85.5905   11.9123 O.2     1  UNL1       -0.2719
     18 N          63.1678   90.6962   12.7484 N.pl3   1  UNL1       -0.3329
     19 H          62.3854   91.1828   13.0953 H       1  UNL1        0.1466
     20 C          64.1074   91.3707   11.7933 C.3     1  UNL1        0.1211
     21 C          65.1561   92.3102   12.3106 C.3     1  UNL1        0.1522
     22 O          65.3303   92.4995   13.7884 O.3     1  UNL1       -0.3783
     23 H          64.6909   91.9455   14.2629 H       1  UNL1        0.2109
     24 C          66.0305   93.0604   11.3501 C.ar    1  UNL1        0.0067
     25 C          65.9338   94.5544   11.2576 C.ar    1  UNL1       -0.0018
     26 C          66.8082   95.3046   10.2971 C.ar    1  UNL1        0.0006
     27 C          67.7794   94.5608    9.4291 C.ar    1  UNL1        0.0114
     28 C          67.8762   93.0668    9.5216 C.ar    1  UNL1        0.0574
     29 CL         68.8474   92.3230    8.6536 Cl      1  UNL1       -0.0823
     30 C          67.0018   92.3166   10.4821 C.ar    1  UNL1        0.0095
     31 N          59.4814   92.5040    3.1503 N.3     1  UNL1       -0.2676
     32 C          60.8705   92.0686    3.5121 C.3     1  UNL1        0.0939
     33 C          61.0971   91.2155    4.7249 C.3     1  UNL1        0.1079
     34 N          59.9346   90.7978    5.5759 N.pl3   1  UNL1       -0.3076
     35 C          58.5456   91.2331    5.2141 C.3     1  UNL1        0.1079
     36 C          58.3190   92.0863    4.0013 C.3     1  UNL1        0.0939
     37 C          59.2548   93.3570    1.9375 C.3     1  UNL1        0.1046
     38 C          59.5477   92.8113    0.5714 C.3     1  UNL1        0.1595
     39 C          61.4670   93.1700   -1.1427 C.3     1  UNL1        0.1742
     40 O          60.9672   92.5823    0.1438 O.3     1  UNL1       -0.3496
@<TRIPOS>BOND
     1    39    40    1
     2    40    38    1
     3    38    37    1
     4    37    31    1
     5    31    32    1
     6    32    33    1
     7    33    34    1
     8    34     1    1
     9     1     2    2
    10     2     3    1
    11     3     4    1
    12     3     5    2
    13     5     6    1
    14     6     7    2
    15     7    11    1
    16    11    12    1
    17    12    18    1
    18    18    20    1
    19    20    21    1
    20    21    22    1
    21    21    24    1
    22    24    25   ar
    23    25    26   ar
    24    26    27   ar
    25    27    28   ar
    26    28    29    1
    27    28    30   ar
    28    12    13    2
    29    13    14    1
    30    14    15    2
    31    15    16    1
    32    16    17    2
    33     7     8    1
    34     8     9    2
    35     9    10    1
    36    34    35    1
    37    35    36    1
    38    36    31    1
    39    10     1    1
    40     9     5    1
    41    16    11    1
    42    30    24   ar
    43    18    19    1
    44    22    23    1
@<TRIPOS>MOLECULE
*****
 40 44 0 0 0
SMALL
GASTEIGER

@<TRIPOS>ATOM
      1 C          60.6713   87.5604    8.0611 C.2     1  UNL1        0.0332
      2 C          61.3530   86.4207    7.3640 C.2     1  UNL1        0.0101
      3 C          62.1072   85.3975    8.1605 C.2     1  UNL1        0.0255
      4 C          62.7889   84.2577    7.4632 C.3     1  UNL1        0.0351
      5 C          62.1796   85.5142    9.6541 C.2     1  UNL1        0.2278
      6 N          62.8442   84.6642   10.6962 N.2     1  UNL1       -0.0345
      7 C          62.5731   85.2787   12.0374 C.2     1  UNL1        0.3649
      8 N          61.7411   86.5085   11.8243 N.2     1  UNL1       -0.0380
      9 C          61.4979   86.6540   10.3513 C.2     1  UNL1        0.2184
     10 C          60.7437   87.6771    9.5548 C.3     1  UNL1        0.1186
     11 C          63.0504   84.7554   13.3597 C.3     1  UNL1        0.2250
     12 C          63.7333   85.6751   14.3281 C.2     1  UNL1        0.0436
     13 C          64.2105   85.1517   15.6503 C.2     1  UNL1        0.0288
     14 C          64.0048   83.7086   16.0042 C.2     1  UNL1        0.0896
     15 N          63.3219   82.7889   15.0359 N.am    1  UNL1       -0.1770
     16 C          62.8447   83.3123   13.7136 C.2     1  UNL1        0.2627
     17 O          62.1618   82.3926   12.7452 O.2     1  UNL1       -0.2719
     18 N          63.9390   87.1181   13.9742 N.pl3   1  UNL1       -0.3329
     19 H          63.8203   87.4187   13.0443 H       1  UNL1        0.1466
     20 C          64.3255   88.1033   15.0372 C.3     1  UNL1        0.1211
     21 C          63.8220   89.5147   14.9706 C.3     1  UNL1        0.1522
     22 O          63.0258   90.0815   16.1084 O.3     1  UNL1       -0.3783
     23 H          62.9284   89.4096   16.8012 H       1  UNL1        0.2109
     24 C          64.1147   90.3593   13.7660 C.ar    1  UNL1        0.0067
     25 C          65.2280   91.3637   13.8067 C.ar    1  UNL1       -0.0018
     26 C          65.5207   92.2082   12.6021 C.ar    1  UNL1        0.0006
     27 C          64.7001   92.0484   11.3567 C.ar    1  UNL1        0.0114
     28 C          63.5868   91.0440   11.3160 C.ar    1  UNL1        0.0574
     29 CL         62.7662   90.8841   10.0706 Cl      1  UNL1       -0.0823
     30 C          63.2941   90.1994   12.5206 C.ar    1  UNL1        0.0095
     31 N          58.4088   90.6300    5.6717 N.3     1  UNL1       -0.2676
     32 C          59.9088   90.6352    5.6707 C.3     1  UNL1        0.0939
     33 C          60.6630   89.6120    6.4672 C.3     1  UNL1        0.1079
     34 N          59.9171   88.5836    7.2646 N.pl3   1  UNL1       -0.3076
     35 C          58.4172   88.5783    7.2656 C.3     1  UNL1        0.1079
     36 C          57.6630   89.6015    6.4691 C.3     1  UNL1        0.0939
     37 C          57.6547   91.6532    4.8752 C.3     1  UNL1        0.1046
     38 C          58.2785   92.2621    3.6545 C.3     1  UNL1        0.1595
     39 C          60.3229   93.4568    2.5855 C.3     1  UNL1        0.1742
     40 O          59.4842   93.1443    3.7891 O.3     1  UNL1       -0.3496
@<TRIPOS>BOND
     1    39    40    1
     2    40    38    1
     3    38    37    1
     4    37    31    1
     5    31    32    1
     6    32    33    1
     7    33    34    1
     8    34     1    1
     9     1     2    2
    10     2     3    1
    11     3     4    1
    12     3     5    2
    13     5     6    1
    14     6     7    2
    15     7    11    1
    16    11    12    1
    17    12    18    1
    18    18    20    1
    19    20    21    1
    20    21    22    1
    21    21    24    1
    22    24    25   ar
    23    25    26   ar
    24    26    27   ar
    25    27    28   ar
    26    28    29    1
    27    28    30   ar
    28    12    13    2
    29    13    14    1
    30    14    15    2
    31    15    16    1
    32    16    17    2
    33     7     8    1
    34     8     9    2
    35     9    10    1
    36    34    35    1
    37    35    36    1
    38    36    31    1
    39    10     1    1
    40     9     5    1
    41    16    11    1
    42    30    24   ar
    43    18    19    1
    44    22    23    1
@<TRIPOS>MOLECULE
*****
 40 44 0 0 0
SMALL
GASTEIGER

@<TRIPOS>ATOM
      1 C          61.4164   87.6171   10.0821 C.2     1  UNL1        0.0332
      2 C          60.1680   88.2314   10.6425 C.2     1  UNL1        0.0101
      3 C          60.2553   89.1931   11.7904 C.2     1  UNL1        0.0255
      4 C          59.0068   89.8074   12.3507 C.3     1  UNL1        0.0351
      5 C          61.5911   89.5405   12.3777 C.2     1  UNL1        0.2278
      6 N          61.9866   90.4492   13.5037 N.2     1  UNL1       -0.0345
      7 C          63.4796   90.3965   13.6392 C.2     1  UNL1        0.3649
      8 N          64.0067   89.4552   12.5969 N.2     1  UNL1       -0.0380
      9 C          62.8395   88.9262   11.8173 C.2     1  UNL1        0.2184
     10 C          62.7522   87.9645   10.6695 C.3     1  UNL1        0.1186
     11 C          64.3012   91.1523   14.6410 C.3     1  UNL1        0.2250
     12 C          65.4840   91.9557   14.1877 C.2     1  UNL1        0.0436
     13 C          66.3056   92.7115   15.1897 C.2     1  UNL1        0.0288
     14 C          65.9445   92.6639   16.6447 C.2     1  UNL1        0.0896
     15 N          64.7617   91.8605   17.0980 N.am    1  UNL1       -0.1770
     16 C          63.9401   91.1047   16.0961 C.2     1  UNL1        0.2627
     17 O          62.7573   90.3012   16.5493 O.2     1  UNL1       -0.2719
     18 N          65.8452   92.0034   12.7327 N.pl3   1  UNL1       -0.3329
     19 H          65.1803   91.7510   12.0519 H       1  UNL1        0.1466
     20 C          67.2195   92.4356   12.3148 C.3     1  UNL1        0.1211
     21 C          67.4707   92.8741   10.9025 C.3     1  UNL1        0.1522
     22 O          68.2363   91.9864    9.9665 O.3     1  UNL1       -0.3783
     23 H          68.4939   91.1740   10.4296 H       1  UNL1        0.2109
     24 C          66.9564   94.2002   10.4262 C.ar    1  UNL1        0.0067
     25 C          65.9230   94.9354   11.2270 C.ar    1  UNL1       -0.0018
     26 C          65.4086   96.2615   10.7506 C.ar    1  UNL1        0.0006
     27 C          65.9278   96.8525    9.4734 C.ar    1  UNL1        0.0114
     28 C          66.9612   96.1172    8.6726 C.ar    1  UNL1        0.0574
     29 CL         67.4803   96.7081    7.3953 Cl      1  UNL1       -0.0823
     30 C          67.4755   94.7911    9.1489 C.ar    1  UNL1        0.0095
     31 N          61.1545   84.7320    6.6386 N.3     1  UNL1       -0.2676
     32 C          59.9529   85.5377    7.0351 C.3     1  UNL1        0.0939
     33 C          60.0403   86.4994    8.1829 C.3     1  UNL1        0.1079
     34 N          61.3291   86.6554    8.9342 N.pl3   1  UNL1       -0.3076
     35 C          62.5306   85.8497    8.5378 C.3     1  UNL1        0.1079
     36 C          62.4433   84.8880    7.3899 C.3     1  UNL1        0.0939
     37 C          61.0671   83.7703    5.4908 C.3     1  UNL1        0.1046
     38 C          61.8430   84.0305    4.2337 C.3     1  UNL1        0.1595
     39 C          61.6973   84.7662    1.7462 C.3     1  UNL1        0.1742
     40 O          61.1528   83.9813    2.9027 O.3     1  UNL1       -0.3496
@<TRIPOS>BOND
     1    39    40    1
     2    40    38    1
     3    38    37    1
     4    37    31    1
     5    31    32    1
     6    32    33    1
     7    33    34    1
     8    34     1    1
     9     1     2    2
    10     2     3    1
    11     3     4    1
    12     3     5    2
    13     5     6    1
    14     6     7    2
    15     7    11    1
    16    11    12    1
    17    12    18    1
    18    18    20    1
    19    20    21    1
    20    21    22    1
    21    21    24    1
    22    24    25   ar
    23    25    26   ar
    24    26    27   ar
    25    27    28   ar
    26    28    29    1
    27    28    30   ar
    28    12    13    2
    29    13    14    1
    30    14    15    2
    31    15    16    1
    32    16    17    2
    33     7     8    1
    34     8     9    2
    35     9    10    1
    36    34    35    1
    37    35    36    1
    38    36    31    1
    39    10     1    1
    40     9     5    1
    41    16    11    1
    42    30    24   ar
    43    18    19    1
    44    22    23    1
