@<TRIPOS>MOLECULE
*****
 28 32 0 0 0
SMALL
GASTEIGER

@<TRIPOS>ATOM
      1 C          60.8981   87.4211    9.0139 C.ar    1  UNL1        0.0620
      2 C          59.9703   87.0135    7.9080 C.ar    1  UNL1        0.0901
      3 CL         59.8084   85.5632    7.5611 Cl      1  UNL1       -0.0793
      4 C          59.2044   88.0563    7.1489 C.ar    1  UNL1        0.1115
      5 N          59.3664   89.5066    7.4957 N.ar    1  UNL1       -0.2413
      6 C          60.2942   89.9142    8.6017 C.ar    1  UNL1        0.1006
      7 C          61.0601   88.8714    9.3607 C.ar    1  UNL1        0.0393
      8 O          62.0825   84.6261   13.6982 O.2     1  UNL1       -0.2751
      9 C          63.0361   83.9667   12.7464 C.2     1  UNL1        0.2217
     10 N          63.9974   82.8655   13.0829 N.am    1  UNL1       -0.3043
     11 C          64.7512   82.5111   11.8354 C.3     1  UNL1        0.0899
     12 C          64.2557   83.3933   10.7279 C.3     1  UNL1        0.0300
     13 C          63.1957   84.2929   11.2910 C.3     1  UNL1        0.0737
     14 C          63.4656   84.5073    9.8312 C.3     1  UNL1        0.0301
     15 C          62.6997   85.5500    9.0722 C.3     1  UNL1        0.0913
     16 N          61.6640   86.3784    9.7730 N.pl3   1  UNL1       -0.3067
     17 C          61.3941   86.1640   11.2328 C.3     1  UNL1        0.0913
     18 C          62.1600   85.1212   11.9918 C.3     1  UNL1        0.0301
     19 H          64.1133   82.4486   13.9672 H       1  UNL1        0.1494
     20 C          61.9879   89.2790   10.4667 C.ar    1  UNL1        0.0322
     21 C          62.3242   88.4645   11.6805 C.ar    1  UNL1        0.0071
     22 C          63.2865   89.2546   12.5170 C.ar    1  UNL1        0.0065
     23 C          63.9608   88.9561   13.8232 C.ar    1  UNL1        0.0005
     24 C          64.8935   89.9605   14.4325 C.ar    1  UNL1        0.0000
     25 C          65.1518   91.2634   13.7357 C.ar    1  UNL1        0.0005
     26 C          64.4775   91.5620   12.4294 C.ar    1  UNL1        0.0065
     27 C          63.5448   90.5576   11.8201 C.ar    1  UNL1        0.0295
     28 S          62.7423   90.5726   10.5530 S.2     1  UNL1       -0.0868
@<TRIPOS>BOND
     1     8     9    2
     2     9    10   am
     3    10    11    1
     4    11    12    1
     5    12    13    1
     6    13    14    1
     7    14    15    1
     8    15    16    1
     9    16     1    1
    10     1     2   ar
    11     2     3    1
    12     2     4   ar
    13     4     5   ar
    14     5     6   ar
    15     6     7   ar
    16     7    20    1
    17    20    21   ar
    18    21    22   ar
    19    22    23   ar
    20    23    24   ar
    21    24    25   ar
    22    25    26   ar
    23    26    27   ar
    24    27    28   ar
    25    16    17    1
    26    17    18    1
    27    13     9    1
    28     7     1   ar
    29    28    20   ar
    30    18    13    1
    31    27    22   ar
    32    10    19    1
@<TRIPOS>MOLECULE
*****
 28 32 0 0 0
SMALL
GASTEIGER

@<TRIPOS>ATOM
      1 C          64.9815   91.3556   13.7136 C.ar    1  UNL1        0.0620
      2 C          65.9538   92.3276   14.3134 C.ar    1  UNL1        0.0901
      3 CL         66.4515   92.1232   15.7136 Cl      1  UNL1       -0.0793
      4 C          66.4285   93.5042   13.5131 C.ar    1  UNL1        0.1115
      5 N          65.9308   93.7087   12.1129 N.ar    1  UNL1       -0.2413
      6 C          64.9585   92.7366   11.5131 C.ar    1  UNL1        0.1006
      7 C          64.4839   91.5601   12.3134 C.ar    1  UNL1        0.0393
      8 O          64.7594   85.8735   14.7406 O.2     1  UNL1       -0.2751
      9 C          63.8918   86.3877   15.8509 C.2     1  UNL1        0.2217
     10 N          63.2062   85.5540   16.8925 N.am    1  UNL1       -0.3043
     11 C          62.4482   86.4771   17.7999 C.3     1  UNL1        0.0899
     12 C          62.6654   87.8814   17.3191 C.3     1  UNL1        0.0300
     13 C          63.5576   87.8261   16.1146 C.3     1  UNL1        0.0737
     14 C          63.1385   89.2137   16.5002 C.3     1  UNL1        0.0301
     15 C          63.6131   90.3902   15.6999 C.3     1  UNL1        0.0913
     16 N          64.5069   90.1791   14.5139 N.pl3   1  UNL1       -0.3067
     17 C          64.9260   88.7915   14.1282 C.3     1  UNL1        0.0913
     18 C          64.4514   87.6150   14.9286 C.3     1  UNL1        0.0301
     19 H          63.2466   84.5732   16.9673 H       1  UNL1        0.1494
     20 C          63.5115   90.5881   11.7136 C.ar    1  UNL1        0.0322
     21 C          63.3399   89.1525   12.1133 C.ar    1  UNL1        0.0071
     22 C          62.2625   88.5581   11.2555 C.ar    1  UNL1        0.0065
     23 C          61.6676   87.1822   11.2010 C.ar    1  UNL1        0.0005
     24 C          60.5785   86.8744   10.2166 C.ar    1  UNL1        0.0000
     25 C          60.0842   87.9426    9.2868 C.ar    1  UNL1        0.0005
     26 C          60.6791   89.3186    9.3412 C.ar    1  UNL1        0.0065
     27 C          61.7682   89.6263   10.3256 C.ar    1  UNL1        0.0295
     28 S          62.5402   90.8809   10.6087 S.2     1  UNL1       -0.0868
@<TRIPOS>BOND
     1     8     9    2
     2     9    10   am
     3    10    11    1
     4    11    12    1
     5    12    13    1
     6    13    14    1
     7    14    15    1
     8    15    16    1
     9    16     1    1
    10     1     2   ar
    11     2     3    1
    12     2     4   ar
    13     4     5   ar
    14     5     6   ar
    15     6     7   ar
    16     7    20    1
    17    20    21   ar
    18    21    22   ar
    19    22    23   ar
    20    23    24   ar
    21    24    25   ar
    22    25    26   ar
    23    26    27   ar
    24    27    28   ar
    25    16    17    1
    26    17    18    1
    27    13     9    1
    28     7     1   ar
    29    28    20   ar
    30    18    13    1
    31    27    22   ar
    32    10    19    1
@<TRIPOS>MOLECULE
*****
 28 32 0 0 0
SMALL
GASTEIGER

@<TRIPOS>ATOM
      1 C          63.1769   87.8967   12.5763 C.ar    1  UNL1        0.0620
      2 C          63.4936   89.3497   12.7719 C.ar    1  UNL1        0.0901
      3 CL         63.0048   90.3639   11.7807 Cl      1  UNL1       -0.0793
      4 C          64.2992   89.7886   13.9587 C.ar    1  UNL1        0.1115
      5 N          64.7880   88.7744   14.9499 N.ar    1  UNL1       -0.2413
      6 C          64.4712   87.3213   14.7542 C.ar    1  UNL1        0.1006
      7 C          63.6657   86.8825   13.5675 C.ar    1  UNL1        0.0393
      8 O          62.6238   85.1364    7.7562 O.2     1  UNL1       -0.2751
      9 C          61.2465   85.7147    7.8914 C.2     1  UNL1        0.2217
     10 N          60.1137   85.5293    6.9258 N.am    1  UNL1       -0.3043
     11 C          58.9271   86.2801    7.4536 C.3     1  UNL1        0.0899
     12 C          59.3266   86.9295    8.7455 C.3     1  UNL1        0.0300
     13 C          60.7601   86.5801    9.0160 C.3     1  UNL1        0.0737
     14 C          60.1353   87.4497   10.0665 C.3     1  UNL1        0.0301
     15 C          60.9409   87.8885   11.2532 C.3     1  UNL1        0.0913
     16 N          62.3713   87.4578   11.3895 N.pl3   1  UNL1       -0.3067
     17 C          62.9960   86.5882   10.3391 C.3     1  UNL1        0.0913
     18 C          62.1904   86.1494    9.1523 C.3     1  UNL1        0.0301
     19 H          60.1436   85.0067    6.0920 H       1  UNL1        0.1494
     20 C          63.3489   85.4294   13.3718 C.ar    1  UNL1        0.0322
     21 C          63.7358   84.5944   12.1873 C.ar    1  UNL1        0.0071
     22 C          63.2156   83.2051   12.4097 C.ar    1  UNL1        0.0065
     23 C          63.2955   81.9586   11.5793 C.ar    1  UNL1        0.0005
     24 C          62.6670   80.6884   12.0709 C.ar    1  UNL1        0.0000
     25 C          61.9586   80.6648   13.3928 C.ar    1  UNL1        0.0005
     26 C          61.8788   81.9114   14.2233 C.ar    1  UNL1        0.0065
     27 C          62.5073   83.1816   13.7318 C.ar    1  UNL1        0.0295
     28 S          62.5896   84.5562   14.3264 S.2     1  UNL1       -0.0868
@<TRIPOS>BOND
     1     8     9    2
     2     9    10   am
     3    10    11    1
     4    11    12    1
     5    12    13    1
     6    13    14    1
     7    14    15    1
     8    15    16    1
     9    16     1    1
    10     1     2   ar
    11     2     3    1
    12     2     4   ar
    13     4     5   ar
    14     5     6   ar
    15     6     7   ar
    16     7    20    1
    17    20    21   ar
    18    21    22   ar
    19    22    23   ar
    20    23    24   ar
    21    24    25   ar
    22    25    26   ar
    23    26    27   ar
    24    27    28   ar
    25    16    17    1
    26    17    18    1
    27    13     9    1
    28     7     1   ar
    29    28    20   ar
    30    18    13    1
    31    27    22   ar
    32    10    19    1
@<TRIPOS>MOLECULE
*****
 28 32 0 0 0
SMALL
GASTEIGER

@<TRIPOS>ATOM
      1 C          65.8275   92.2931   14.5224 C.ar    1  UNL1        0.0620
      2 C          66.4813   92.9512   15.7011 C.ar    1  UNL1        0.0901
      3 CL         67.6886   93.8188   15.5015 Cl      1  UNL1       -0.0793
      4 C          65.9279   92.7417   17.0795 C.ar    1  UNL1        0.1115
      5 N          64.7207   91.8741   17.2792 N.ar    1  UNL1       -0.2413
      6 C          64.0669   91.2160   16.1004 C.ar    1  UNL1        0.1006
      7 C          64.6203   91.4255   14.7221 C.ar    1  UNL1        0.0393
      8 O          66.1176   95.1161    9.7157 O.2     1  UNL1       -0.2751
      9 C          67.1123   94.0265    9.4450 C.2     1  UNL1        0.2217
     10 N          67.9063   93.8507    8.1846 N.am    1  UNL1       -0.3043
     11 C          68.7724   92.6369    8.3478 C.3     1  UNL1        0.0899
     12 C          68.5137   92.0626    9.7093 C.3     1  UNL1        0.0300
     13 C          67.4877   92.9214   10.3874 C.3     1  UNL1        0.0737
     14 C          67.9611   91.7656   11.2179 C.3     1  UNL1        0.0301
     15 C          67.4077   91.5562   12.5963 C.3     1  UNL1        0.0913
     16 N          66.3809   92.5026   13.1440 N.pl3   1  UNL1       -0.3067
     17 C          65.9075   93.6584   12.3134 C.3     1  UNL1        0.0913
     18 C          66.4609   93.8679   10.9351 C.3     1  UNL1        0.0301
     19 H          67.8660   94.4301    7.3897 H       1  UNL1        0.1494
     20 C          63.9664   90.7674   13.5433 C.ar    1  UNL1        0.0322
     21 C          63.4274   91.4660   12.3302 C.ar    1  UNL1        0.0071
     22 C          62.8647   90.4256   11.4078 C.ar    1  UNL1        0.0065
     23 C          62.2029   90.5265   10.0656 C.ar    1  UNL1        0.0005
     24 C          61.7322   89.2858    9.3662 C.ar    1  UNL1        0.0000
     25 C          61.9235   87.9442   10.0091 C.ar    1  UNL1        0.0005
     26 C          62.5853   87.8432   11.3515 C.ar    1  UNL1        0.0065
     27 C          63.0559   89.0839   12.0508 C.ar    1  UNL1        0.0295
     28 S          63.7368   89.2952   13.3706 S.2     1  UNL1       -0.0868
@<TRIPOS>BOND
     1     8     9    2
     2     9    10   am
     3    10    11    1
     4    11    12    1
     5    12    13    1
     6    13    14    1
     7    14    15    1
     8    15    16    1
     9    16     1    1
    10     1     2   ar
    11     2     3    1
    12     2     4   ar
    13     4     5   ar
    14     5     6   ar
    15     6     7   ar
    16     7    20    1
    17    20    21   ar
    18    21    22   ar
    19    22    23   ar
    20    23    24   ar
    21    24    25   ar
    22    25    26   ar
    23    26    27   ar
    24    27    28   ar
    25    16    17    1
    26    17    18    1
    27    13     9    1
    28     7     1   ar
    29    28    20   ar
    30    18    13    1
    31    27    22   ar
    32    10    19    1
@<TRIPOS>MOLECULE
*****
 28 32 0 0 0
SMALL
GASTEIGER

@<TRIPOS>ATOM
      1 C          64.5243   91.4564   12.5849 C.ar    1  UNL1        0.0620
      2 C          65.0595   92.6486   11.8486 C.ar    1  UNL1        0.0901
      3 CL         64.5065   93.0085   10.5015 Cl      1  UNL1       -0.0793
      4 C          66.1477   93.4810   12.4594 C.ar    1  UNL1        0.1115
      5 N          66.7007   93.1212   13.8065 N.ar    1  UNL1       -0.2413
      6 C          66.1655   91.9289   14.5428 C.ar    1  UNL1        0.1006
      7 C          65.0773   91.0966   13.9320 C.ar    1  UNL1        0.0393
      8 O          59.4577   89.1179   12.7203 O.2     1  UNL1       -0.2751
      9 C          59.9312   88.6496   11.3763 C.2     1  UNL1        0.2217
     10 N          59.1595   87.7894   10.4200 N.am    1  UNL1       -0.3043
     11 C          60.0111   87.5674    9.2053 C.3     1  UNL1        0.0899
     12 C          61.3092   88.2905    9.4108 C.3     1  UNL1        0.0300
     13 C          61.2599   88.9593   10.7526 C.3     1  UNL1        0.0737
     14 C          62.5414   89.1833   10.0060 C.3     1  UNL1        0.0301
     15 C          63.6295   90.0156   10.6168 C.3     1  UNL1        0.0913
     16 N          63.4361   90.6240   11.9741 N.pl3   1  UNL1       -0.3067
     17 C          62.1546   90.4001   12.7207 C.3     1  UNL1        0.0913
     18 C          61.0665   89.5677   12.1099 C.3     1  UNL1        0.0301
     19 H          58.2532   87.4330   10.5644 H       1  UNL1        0.1494
     20 C          64.5421   89.9043   14.6683 C.ar    1  UNL1        0.0322
     21 C          64.7283   88.4687   14.2753 C.ar    1  UNL1        0.0071
     22 C          64.0281   87.6154   15.2909 C.ar    1  UNL1        0.0065
     23 C          63.8741   86.1288   15.4182 C.ar    1  UNL1        0.0005
     24 C          63.1011   85.5504   16.5662 C.ar    1  UNL1        0.0000
     25 C          62.4821   86.4586   17.5870 C.ar    1  UNL1        0.0005
     26 C          62.6361   87.9453   17.4597 C.ar    1  UNL1        0.0065
     27 C          63.4091   88.5237   16.3117 C.ar    1  UNL1        0.0295
     28 S          63.7268   89.9383   15.9269 S.2     1  UNL1       -0.0868
@<TRIPOS>BOND
     1     8     9    2
     2     9    10   am
     3    10    11    1
     4    11    12    1
     5    12    13    1
     6    13    14    1
     7    14    15    1
     8    15    16    1
     9    16     1    1
    10     1     2   ar
    11     2     3    1
    12     2     4   ar
    13     4     5   ar
    14     5     6   ar
    15     6     7   ar
    16     7    20    1
    17    20    21   ar
    18    21    22   ar
    19    22    23   ar
    20    23    24   ar
    21    24    25   ar
    22    25    26   ar
    23    26    27   ar
    24    27    28   ar
    25    16    17    1
    26    17    18    1
    27    13     9    1
    28     7     1   ar
    29    28    20   ar
    30    18    13    1
    31    27    22   ar
    32    10    19    1
@<TRIPOS>MOLECULE
*****
 28 32 0 0 0
SMALL
GASTEIGER

@<TRIPOS>ATOM
      1 C          63.2066   87.6558   12.5085 C.ar    1  UNL1        0.0620
      2 C          63.4986   89.1180   12.6716 C.ar    1  UNL1        0.0901
      3 CL         63.1043   90.0861   11.5958 Cl      1  UNL1       -0.0793
      4 C          64.1850   89.6122   13.9104 C.ar    1  UNL1        0.1115
      5 N          64.5794   88.6441   14.9862 N.ar    1  UNL1       -0.2413
      6 C          64.2873   87.1818   14.8231 C.ar    1  UNL1        0.1006
      7 C          63.6010   86.6877   13.5842 C.ar    1  UNL1        0.0393
      8 O          58.7686   87.3420    9.1374 O.2     1  UNL1       -0.2751
      9 C          59.7386   86.4834    8.3812 C.2     1  UNL1        0.2217
     10 N          59.4700   85.7840    7.0817 N.am    1  UNL1       -0.3043
     11 C          60.7130   85.0417    6.6892 C.3     1  UNL1        0.0899
     12 C          61.7499   85.2824    7.7462 C.3     1  UNL1        0.0300
     13 C          61.1477   86.1733    8.7919 C.3     1  UNL1        0.0737
     14 C          62.5673   85.7776    9.0714 C.3     1  UNL1        0.0301
     15 C          63.2535   86.2718   10.3102 C.3     1  UNL1        0.0913
     16 N          62.5203   87.1617   11.2696 N.pl3   1  UNL1       -0.3067
     17 C          61.1007   87.5574   10.9901 C.3     1  UNL1        0.0913
     18 C          60.4144   87.0632    9.7513 C.3     1  UNL1        0.0301
     19 H          58.6260   85.8080    6.5754 H       1  UNL1        0.1494
     20 C          63.3089   85.2254   13.4211 C.ar    1  UNL1        0.0322
     21 C          63.7991   84.3472   12.3082 C.ar    1  UNL1        0.0071
     22 C          63.2686   82.9637   12.5415 C.ar    1  UNL1        0.0065
     23 C          63.4247   81.6859   11.7717 C.ar    1  UNL1        0.0005
     24 C          62.7628   80.4311   12.2589 C.ar    1  UNL1        0.0000
     25 C          61.9448   80.4542   13.5159 C.ar    1  UNL1        0.0005
     26 C          61.7886   81.7321   14.2858 C.ar    1  UNL1        0.0065
     27 C          62.4505   82.9869   13.7986 C.ar    1  UNL1        0.0295
     28 S          62.4755   84.3847   14.3422 S.2     1  UNL1       -0.0868
@<TRIPOS>BOND
     1     8     9    2
     2     9    10   am
     3    10    11    1
     4    11    12    1
     5    12    13    1
     6    13    14    1
     7    14    15    1
     8    15    16    1
     9    16     1    1
    10     1     2   ar
    11     2     3    1
    12     2     4   ar
    13     4     5   ar
    14     5     6   ar
    15     6     7   ar
    16     7    20    1
    17    20    21   ar
    18    21    22   ar
    19    22    23   ar
    20    23    24   ar
    21    24    25   ar
    22    25    26   ar
    23    26    27   ar
    24    27    28   ar
    25    16    17    1
    26    17    18    1
    27    13     9    1
    28     7     1   ar
    29    28    20   ar
    30    18    13    1
    31    27    22   ar
    32    10    19    1
@<TRIPOS>MOLECULE
*****
 28 32 0 0 0
SMALL
GASTEIGER

@<TRIPOS>ATOM
      1 C          61.2492   93.4142    0.8469 C.ar    1  UNL1        0.0620
      2 C          61.2875   92.8360    2.2304 C.ar    1  UNL1        0.0901
      3 CL         60.0130   92.6387    2.9964 Cl      1  UNL1       -0.0793
      4 C          62.6004   92.4551    2.8480 C.ar    1  UNL1        0.1115
      5 N          63.8749   92.6525    2.0821 N.ar    1  UNL1       -0.2413
      6 C          63.8365   93.2307    0.6985 C.ar    1  UNL1        0.1006
      7 C          62.5237   93.6115    0.0809 C.ar    1  UNL1        0.0393
      8 O          56.3374   92.1096   -1.4620 O.2     1  UNL1       -0.2751
      9 C          56.2599   93.6071   -1.4995 C.2     1  UNL1        0.2217
     10 N          55.1180   94.4177   -2.0371 N.am    1  UNL1       -0.3043
     11 C          55.4631   95.8685   -1.8758 C.3     1  UNL1        0.0899
     12 C          56.8183   95.9546   -1.2385 C.3     1  UNL1        0.0300
     13 C          57.3108   94.5569   -1.0060 C.3     1  UNL1        0.0737
     14 C          58.2660   95.6229   -0.5575 C.3     1  UNL1        0.0301
     15 C          59.5788   95.2420    0.0601 C.3     1  UNL1        0.0913
     16 N          59.9364   93.7951    0.2292 N.pl3   1  UNL1       -0.3067
     17 C          58.9811   92.7291   -0.2192 C.3     1  UNL1        0.0913
     18 C          57.6684   93.1100   -0.8368 C.3     1  UNL1        0.0301
     19 H          54.2878   94.0602   -2.4272 H       1  UNL1        0.1494
     20 C          62.4854   94.1897   -1.3027 C.ar    1  UNL1        0.0322
     21 C          61.9800   93.4976   -2.5338 C.ar    1  UNL1        0.0071
     22 C          62.1279   94.4416   -3.6901 C.ar    1  UNL1        0.0065
     23 C          61.7964   94.3045   -5.1465 C.ar    1  UNL1        0.0005
     24 C          62.0615   95.4430   -6.0865 C.ar    1  UNL1        0.0000
     25 C          62.6582   96.7186   -5.5700 C.ar    1  UNL1        0.0005
     26 C          62.9898   96.8557   -4.1135 C.ar    1  UNL1        0.0065
     27 C          62.7247   95.7172   -3.1735 C.ar    1  UNL1        0.0295
     28 S          62.9456   95.5615   -1.6981 S.2     1  UNL1       -0.0868
@<TRIPOS>BOND
     1     8     9    2
     2     9    10   am
     3    10    11    1
     4    11    12    1
     5    12    13    1
     6    13    14    1
     7    14    15    1
     8    15    16    1
     9    16     1    1
    10     1     2   ar
    11     2     3    1
    12     2     4   ar
    13     4     5   ar
    14     5     6   ar
    15     6     7   ar
    16     7    20    1
    17    20    21   ar
    18    21    22   ar
    19    22    23   ar
    20    23    24   ar
    21    24    25   ar
    22    25    26   ar
    23    26    27   ar
    24    27    28   ar
    25    16    17    1
    26    17    18    1
    27    13     9    1
    28     7     1   ar
    29    28    20   ar
    30    18    13    1
    31    27    22   ar
    32    10    19    1
@<TRIPOS>MOLECULE
*****
 28 32 0 0 0
SMALL
GASTEIGER

@<TRIPOS>ATOM
      1 C          60.7058   88.1951    9.1917 C.ar    1  UNL1        0.0620
      2 C          59.7981   88.9477    8.2646 C.ar    1  UNL1        0.0901
      3 CL         59.7534   90.4463    8.3116 Cl      1  UNL1       -0.0793
      4 C          58.9351   88.2018    7.2904 C.ar    1  UNL1        0.1115
      5 N          58.9799   86.7032    7.2434 N.ar    1  UNL1       -0.2413
      6 C          59.8876   85.9505    8.1706 C.ar    1  UNL1        0.1006
      7 C          60.7505   86.6965    9.1447 C.ar    1  UNL1        0.0393
      8 O          62.1130   89.6716   14.3876 O.2     1  UNL1       -0.2751
      9 C          63.1482   90.4258   13.6069 C.2     1  UNL1        0.2217
     10 N          64.2187   91.3053   14.1819 N.am    1  UNL1       -0.3043
     11 C          65.0268   91.8559   13.0444 C.3     1  UNL1        0.0899
     12 C          64.4557   91.3166   11.7664 C.3     1  UNL1        0.0300
     13 C          63.2947   90.4328   12.1140 C.3     1  UNL1        0.0737
     14 C          63.5631   90.5366   10.6419 C.3     1  UNL1        0.0301
     15 C          62.7001   89.7907    9.6679 C.3     1  UNL1        0.0913
     16 N          61.5688   88.9410   10.1659 N.pl3   1  UNL1       -0.3067
     17 C          61.3004   88.8371   11.6380 C.3     1  UNL1        0.0913
     18 C          62.1634   89.5830   12.6121 C.3     1  UNL1        0.0301
     19 H          64.3651   91.4890   15.1380 H       1  UNL1        0.1494
     20 C          61.6583   85.9438   10.0719 C.ar    1  UNL1        0.0322
     21 C          61.6628   86.0363   11.5690 C.ar    1  UNL1        0.0071
     22 C          62.7281   85.1162   12.0872 C.ar    1  UNL1        0.0065
     23 C          63.1872   84.7950   13.4785 C.ar    1  UNL1        0.0005
     24 C          64.3002   83.8126   13.6930 C.ar    1  UNL1        0.0000
     25 C          64.9542   83.1514   12.5161 C.ar    1  UNL1        0.0005
     26 C          64.4951   83.4726   11.1246 C.ar    1  UNL1        0.0065
     27 C          63.3820   84.4550   10.9102 C.ar    1  UNL1        0.0295
     28 S          62.7208   84.9665    9.6647 S.2     1  UNL1       -0.0868
@<TRIPOS>BOND
     1     8     9    2
     2     9    10   am
     3    10    11    1
     4    11    12    1
     5    12    13    1
     6    13    14    1
     7    14    15    1
     8    15    16    1
     9    16     1    1
    10     1     2   ar
    11     2     3    1
    12     2     4   ar
    13     4     5   ar
    14     5     6   ar
    15     6     7   ar
    16     7    20    1
    17    20    21   ar
    18    21    22   ar
    19    22    23   ar
    20    23    24   ar
    21    24    25   ar
    22    25    26   ar
    23    26    27   ar
    24    27    28   ar
    25    16    17    1
    26    17    18    1
    27    13     9    1
    28     7     1   ar
    29    28    20   ar
    30    18    13    1
    31    27    22   ar
    32    10    19    1
@<TRIPOS>MOLECULE
*****
 28 32 0 0 0
SMALL
GASTEIGER

@<TRIPOS>ATOM
      1 C          71.6224   71.9606   15.6195 C.ar    1  UNL1        0.0620
      2 C          71.5070   70.8130   16.5784 C.ar    1  UNL1        0.0901
      3 CL         71.3449   69.4151   16.0591 Cl      1  UNL1       -0.0793
      4 C          71.5535   71.0632   18.0567 C.ar    1  UNL1        0.1115
      5 N          71.7155   72.4611   18.5760 N.ar    1  UNL1       -0.2413
      6 C          71.8310   73.6088   17.6170 C.ar    1  UNL1        0.1006
      7 C          71.7845   73.3585   16.1388 C.ar    1  UNL1        0.0393
      8 O          68.8508   70.8363   10.9065 O.2     1  UNL1       -0.2751
      9 C          70.2516   70.9232   10.3773 C.2     1  UNL1        0.2217
     10 N          70.6672   70.7387    8.9479 N.am    1  UNL1       -0.3043
     11 C          72.1553   70.9114    8.8718 C.3     1  UNL1        0.0899
     12 C          72.6594   71.2027   10.2543 C.3     1  UNL1        0.0300
     13 C          71.4829   71.2100   11.1848 C.3     1  UNL1        0.0737
     14 C          72.7948   71.4847   11.8580 C.3     1  UNL1        0.0301
     15 C          72.8413   71.7349   13.3362 C.3     1  UNL1        0.0913
     16 N          71.5759   71.7104   14.1412 N.pl3   1  UNL1       -0.3067
     17 C          70.2639   71.4358   13.4680 C.3     1  UNL1        0.0913
     18 C          70.2174   71.1856   11.9898 C.3     1  UNL1        0.0301
     19 H          70.0684   70.5392    8.1924 H       1  UNL1        0.1494
     20 C          71.8999   74.5062   15.1798 C.ar    1  UNL1        0.0322
     21 C          70.7905   75.0710   14.3431 C.ar    1  UNL1        0.0071
     22 C          71.3499   76.2044   13.5353 C.ar    1  UNL1        0.0065
     23 C          70.7223   77.1304   12.5361 C.ar    1  UNL1        0.0005
     24 C          71.5499   78.1921   11.8744 C.ar    1  UNL1        0.0000
     25 C          73.0051   78.3278   12.2119 C.ar    1  UNL1        0.0005
     26 C          73.6328   77.4017   13.2111 C.ar    1  UNL1        0.0065
     27 C          72.8052   76.3400   13.8729 C.ar    1  UNL1        0.0295
     28 S          73.1451   75.2905   14.8892 S.2     1  UNL1       -0.0868
@<TRIPOS>BOND
     1     8     9    2
     2     9    10   am
     3    10    11    1
     4    11    12    1
     5    12    13    1
     6    13    14    1
     7    14    15    1
     8    15    16    1
     9    16     1    1
    10     1     2   ar
    11     2     3    1
    12     2     4   ar
    13     4     5   ar
    14     5     6   ar
    15     6     7   ar
    16     7    20    1
    17    20    21   ar
    18    21    22   ar
    19    22    23   ar
    20    23    24   ar
    21    24    25   ar
    22    25    26   ar
    23    26    27   ar
    24    27    28   ar
    25    16    17    1
    26    17    18    1
    27    13     9    1
    28     7     1   ar
    29    28    20   ar
    30    18    13    1
    31    27    22   ar
    32    10    19    1
