@<TRIPOS>MOLECULE
*****
 41 44 0 0 0
SMALL
GASTEIGER

@<TRIPOS>ATOM
      1 C          62.3732   84.7410   12.1862 C.ar    1  UNL1        0.0345
      2 C          61.9363   83.3164   12.3581 C.ar    1  UNL1        0.0029
      3 C          62.1791   82.6092   13.6584 C.ar    1  UNL1        0.0374
      4 C          62.8589   83.3265   14.7868 C.ar    1  UNL1        0.0988
      5 N          63.2959   84.7511   14.6149 N.ar    1  UNL1       -0.2294
      6 C          63.0531   85.4583   13.3146 C.ar    1  UNL1        0.1318
      7 C          60.2479   87.8366    8.4739 C.3     1  UNL1        0.1538
      8 N          61.1535   86.8712    9.1796 N.ar    1  UNL1       -0.2473
      9 C          61.0117   86.4052   10.5982 C.ar    1  UNL1        0.0968
     10 C          62.1304   85.4483   10.8859 C.ar    1  UNL1        0.0423
     11 C          62.9637   85.3229    9.6450 C.ar    1  UNL1        0.1217
     12 N          62.3599   86.2023    8.5904 N.ar    1  UNL1       -0.1676
     13 N          63.4901   86.8830   13.1427 N.pl3   1  UNL1       -0.2903
     14 C          63.0670   87.6559   11.9288 C.3     1  UNL1        0.1113
     15 C          63.5039   89.0805   11.7568 C.3     1  UNL1        0.1173
     16 N          64.3640   89.7322   12.7987 N.3     1  UNL1       -0.1520
     17 C          64.7872   88.9592   14.0126 C.3     1  UNL1        0.1173
     18 C          64.3502   87.5346   14.1846 C.3     1  UNL1        0.1113
     19 S          64.8010   91.1567   12.6267 S.O2    1  UNL1        0.0649
     20 O          65.6470   91.0462   13.8604 O.2     1  UNL1       -0.1527
     21 O          63.9550   91.2673   11.3930 O.2     1  UNL1       -0.1527
     22 C          65.2379   92.5813   12.4548 C.ar    1  UNL1        0.1414
     23 C          65.1111   93.2485   11.1173 C.ar    1  UNL1        0.0244
     24 C          65.5481   94.6731   10.9453 C.ar    1  UNL1        0.0353
     25 C          66.1119   95.4305   12.1108 C.ar    1  UNL1        0.1255
     26 N          66.5488   96.8551   11.9388 N.pl3   1  UNL1       -0.3426
     27 N          66.2387   94.7634   13.4483 N.ar    1  UNL1       -0.2282
     28 C          65.8018   93.3388   13.6203 C.ar    1  UNL1        0.1201
     29 H          66.4656   97.2930   11.0610 H       1  UNL1        0.1437
     30 H          66.9189   97.3522   12.7038 H       1  UNL1        0.1437
     31 C          61.7421   81.1845   13.8304 C.3     1  UNL1        0.2841
     32 O          60.9511   81.5736   15.0440 O.3     1  UNL1       -0.3692
     33 H          60.0121   81.3832   14.8926 H       1  UNL1        0.2112
     34 C          61.3051   79.7599   14.0023 C.3     1  UNL1        0.4312
     35 F          60.8681   78.3353   14.1742 F       1  UNL1       -0.1669
     36 F          59.8931   80.2188   14.2153 F       1  UNL1       -0.1669
     37 F          62.1012   79.3885   13.8898 F       1  UNL1       -0.1669
     38 C          62.5331   80.7955   12.6167 C.3     1  UNL1        0.4312
     39 F          63.3240   80.4064   11.4030 F       1  UNL1       -0.1669
     40 F          61.8431   80.6339   12.0854 F       1  UNL1       -0.1669
     41 F          63.9610   80.9225   13.0580 F       1  UNL1       -0.1669
@<TRIPOS>BOND
     1     7     8    1
     2     8     9   ar
     3     9    10   ar
     4    10     1    1
     5     1     2   ar
     6     2     3   ar
     7     3    31    1
     8    31    32    1
     9    31    34    1
    10    34    35    1
    11    34    36    1
    12    34    37    1
    13    31    38    1
    14    38    39    1
    15    38    40    1
    16    38    41    1
    17     3     4   ar
    18     4     5   ar
    19     5     6   ar
    20     6    13    1
    21    13    14    1
    22    14    15    1
    23    15    16    1
    24    16    19    1
    25    19    20    2
    26    19    21    2
    27    19    22    1
    28    22    23   ar
    29    23    24   ar
    30    24    25   ar
    31    25    26    1
    32    25    27   ar
    33    27    28   ar
    34    16    17    1
    35    17    18    1
    36    10    11   ar
    37    11    12   ar
    38    12     8   ar
    39     6     1   ar
    40    18    13    1
    41    28    22   ar
    42    32    33    1
    43    26    29    1
    44    26    30    1
@<TRIPOS>MOLECULE
*****
 41 44 0 0 0
SMALL
GASTEIGER

@<TRIPOS>ATOM
      1 C          63.6968   90.6809   12.2050 C.ar    1  UNL1        0.0345
      2 C          64.1387   92.1078   12.0684 C.ar    1  UNL1        0.0029
      3 C          65.3875   92.5752   12.7555 C.ar    1  UNL1        0.0374
      4 C          66.1943   91.6157   13.5791 C.ar    1  UNL1        0.0988
      5 N          65.7524   90.1889   13.7157 N.ar    1  UNL1       -0.2294
      6 C          64.5037   89.7215   13.0286 C.ar    1  UNL1        0.1318
      7 C          60.3027   89.1160    8.4751 C.3     1  UNL1        0.1538
      8 N          60.8880   89.4941    9.8034 N.ar    1  UNL1       -0.2473
      9 C          62.2990   89.9388   10.0508 C.ar    1  UNL1        0.0968
     10 C          62.4480   90.2135   11.5179 C.ar    1  UNL1        0.0423
     11 C          61.1291   89.9386   12.1773 C.ar    1  UNL1        0.1217
     12 N          60.1649   89.4941   11.1177 N.ar    1  UNL1       -0.1676
     13 N          64.0617   88.2945   13.1652 N.pl3   1  UNL1       -0.2903
     14 C          64.4038   87.5186   14.4025 C.3     1  UNL1        0.1113
     15 C          63.9619   86.0917   14.5391 C.3     1  UNL1        0.1173
     16 N          63.1779   85.4407   13.4383 N.3     1  UNL1       -0.1520
     17 C          62.8358   86.2166   12.2010 C.3     1  UNL1        0.1173
     18 C          63.2778   87.6436   12.0645 C.3     1  UNL1        0.1113
     19 S          62.7360   84.0138   13.5749 S.O2    1  UNL1        0.0649
     20 O          63.4566   83.6691   12.3054 O.2     1  UNL1       -0.1527
     21 O          62.0154   84.3585   14.8445 O.2     1  UNL1       -0.1527
     22 C          62.2941   82.5869   13.7115 C.ar    1  UNL1        0.1414
     23 C          63.1568   81.4805   13.1809 C.ar    1  UNL1        0.0244
     24 C          62.7148   80.0536   13.3175 C.ar    1  UNL1        0.0353
     25 C          61.4102   79.7331   13.9847 C.ar    1  UNL1        0.1255
     26 N          60.9683   78.3063   14.1213 N.pl3   1  UNL1       -0.3426
     27 N          60.5474   80.8396   14.5153 N.ar    1  UNL1       -0.2282
     28 C          60.9893   82.2664   14.3787 C.ar    1  UNL1        0.1201
     29 H          61.5345   77.5801   13.7731 H       1  UNL1        0.1437
     30 H          60.1120   78.0959   14.5592 H       1  UNL1        0.1437
     31 C          65.8294   94.0022   12.6189 C.3     1  UNL1        0.2841
     32 O          65.7422   94.1716   14.1068 O.3     1  UNL1       -0.3692
     33 H          66.6184   94.3933   14.4589 H       1  UNL1        0.2112
     34 C          66.2714   95.4290   12.4824 C.3     1  UNL1        0.4312
     35 F          66.7134   96.8560   12.3458 F       1  UNL1       -0.1669
     36 F          66.8762   95.3730   13.8538 F       1  UNL1       -0.1669
     37 F          65.9487   95.5646   11.6688 F       1  UNL1       -0.1669
     38 C          65.9167   93.8327   11.1311 C.3     1  UNL1        0.4312
     39 F          66.0039   93.6633    9.6432 F       1  UNL1       -0.1669
     40 F          65.1376   94.2052   10.9341 F       1  UNL1       -0.1669
     41 F          67.2379   93.1548   10.9198 F       1  UNL1       -0.1669
@<TRIPOS>BOND
     1     7     8    1
     2     8     9   ar
     3     9    10   ar
     4    10     1    1
     5     1     2   ar
     6     2     3   ar
     7     3    31    1
     8    31    32    1
     9    31    34    1
    10    34    35    1
    11    34    36    1
    12    34    37    1
    13    31    38    1
    14    38    39    1
    15    38    40    1
    16    38    41    1
    17     3     4   ar
    18     4     5   ar
    19     5     6   ar
    20     6    13    1
    21    13    14    1
    22    14    15    1
    23    15    16    1
    24    16    19    1
    25    19    20    2
    26    19    21    2
    27    19    22    1
    28    22    23   ar
    29    23    24   ar
    30    24    25   ar
    31    25    26    1
    32    25    27   ar
    33    27    28   ar
    34    16    17    1
    35    17    18    1
    36    10    11   ar
    37    11    12   ar
    38    12     8   ar
    39     6     1   ar
    40    18    13    1
    41    28    22   ar
    42    32    33    1
    43    26    29    1
    44    26    30    1
@<TRIPOS>MOLECULE
*****
 41 44 0 0 0
SMALL
GASTEIGER

@<TRIPOS>ATOM
      1 C          45.1738   78.2955   18.2203 C.ar    1  UNL1        0.0345
      2 C          45.0511   79.6828   18.7772 C.ar    1  UNL1        0.0029
      3 C          44.2945   80.7317   18.0174 C.ar    1  UNL1        0.0374
      4 C          43.6605   80.3933   16.7008 C.ar    1  UNL1        0.0988
      5 N          43.7831   79.0060   16.1439 N.ar    1  UNL1       -0.2294
      6 C          44.5398   77.9571   16.9036 C.ar    1  UNL1        0.1318
      7 C          49.0985   75.2919   20.0794 C.3     1  UNL1        0.1538
      8 N          47.7345   75.8659   19.8346 N.ar    1  UNL1       -0.2473
      9 C          47.4101   77.0079   18.9177 C.ar    1  UNL1        0.0968
     10 C          45.9305   77.2465   18.9800 C.ar    1  UNL1        0.0423
     11 C          45.3404   76.2520   19.9354 C.ar    1  UNL1        0.1217
     12 N          46.4553   75.3988   20.4636 N.ar    1  UNL1       -0.1676
     13 N          44.6625   76.5696   16.3467 N.pl3   1  UNL1       -0.2903
     14 C          43.6879   76.0873   15.3135 C.3     1  UNL1        0.1113
     15 C          43.8106   74.7000   14.7566 C.3     1  UNL1        0.1173
     16 N          44.9078   73.7948   15.2330 N.3     1  UNL1       -0.1520
     17 C          45.8824   74.2772   16.2662 C.3     1  UNL1        0.1173
     18 C          45.7597   75.6646   16.8231 C.3     1  UNL1        0.1113
     19 S          45.0305   72.4075   14.6761 S.O2    1  UNL1        0.0649
     20 O          46.4280   72.7123   14.2244 O.2     1  UNL1       -0.1527
     21 O          43.6330   72.1026   15.1278 O.2     1  UNL1       -0.1527
     22 C          45.1531   71.0201   14.1192 C.ar    1  UNL1        0.1414
     23 C          46.3536   70.1832   14.4484 C.ar    1  UNL1        0.0244
     24 C          46.4762   68.7958   13.8915 C.ar    1  UNL1        0.0353
     25 C          45.3984   68.2454   13.0054 C.ar    1  UNL1        0.1255
     26 N          45.5210   66.8580   12.4485 N.pl3   1  UNL1       -0.3426
     27 N          44.1979   69.0823   12.6761 N.ar    1  UNL1       -0.2282
     28 C          44.0753   70.4697   13.2330 C.ar    1  UNL1        0.1201
     29 H          46.3090   66.3087   12.6646 H       1  UNL1        0.1437
     30 H          44.8136   66.4967   11.8668 H       1  UNL1        0.1437
     31 C          44.1718   82.1192   18.5743 C.3     1  UNL1        0.2841
     32 O          43.7697   82.6267   17.2213 O.3     1  UNL1       -0.3692
     33 H          42.8761   83.0011   17.2689 H       1  UNL1        0.2112
     34 C          44.0491   83.5065   19.1312 C.3     1  UNL1        0.4312
     35 F          43.9264   84.8939   19.6881 F       1  UNL1       -0.1669
     36 F          43.6406   84.0129   17.7797 F       1  UNL1       -0.1669
     37 F          44.2797   83.3096   19.9634 F       1  UNL1       -0.1669
     38 C          44.5739   81.6116   19.9273 C.3     1  UNL1        0.4312
     39 F          44.9759   81.1040   21.2804 F       1  UNL1       -0.1669
     40 F          43.7591   81.4210   20.2177 F       1  UNL1       -0.1669
     41 F          46.0680   81.7438   19.9354 F       1  UNL1       -0.1669
@<TRIPOS>BOND
     1     7     8    1
     2     8     9   ar
     3     9    10   ar
     4    10     1    1
     5     1     2   ar
     6     2     3   ar
     7     3    31    1
     8    31    32    1
     9    31    34    1
    10    34    35    1
    11    34    36    1
    12    34    37    1
    13    31    38    1
    14    38    39    1
    15    38    40    1
    16    38    41    1
    17     3     4   ar
    18     4     5   ar
    19     5     6   ar
    20     6    13    1
    21    13    14    1
    22    14    15    1
    23    15    16    1
    24    16    19    1
    25    19    20    2
    26    19    21    2
    27    19    22    1
    28    22    23   ar
    29    23    24   ar
    30    24    25   ar
    31    25    26    1
    32    25    27   ar
    33    27    28   ar
    34    16    17    1
    35    17    18    1
    36    10    11   ar
    37    11    12   ar
    38    12     8   ar
    39     6     1   ar
    40    18    13    1
    41    28    22   ar
    42    32    33    1
    43    26    29    1
    44    26    30    1
@<TRIPOS>MOLECULE
*****
 41 44 0 0 0
SMALL
GASTEIGER

@<TRIPOS>ATOM
      1 C          63.6932   90.7102   12.1764 C.ar    1  UNL1        0.0345
      2 C          64.1461   92.1345   12.0492 C.ar    1  UNL1        0.0029
      3 C          65.4106   92.5822   12.7205 C.ar    1  UNL1        0.0374
      4 C          66.2222   91.6055   13.5189 C.ar    1  UNL1        0.0988
      5 N          65.7693   90.1812   13.6461 N.ar    1  UNL1       -0.2294
      6 C          64.5048   89.7336   12.9748 C.ar    1  UNL1        0.1318
      7 C          60.2430   89.1437    8.4990 C.3     1  UNL1        0.1538
      8 N          60.8428   89.5425    9.8147 N.ar    1  UNL1       -0.2473
      9 C          62.2679   89.9490   10.0470 C.ar    1  UNL1        0.0968
     10 C          62.4287   90.2625   11.5051 C.ar    1  UNL1        0.0423
     11 C          61.1031   90.0497   12.1739 C.ar    1  UNL1        0.1217
     12 N          60.1230   89.6047   11.1293 N.ar    1  UNL1       -0.1676
     13 N          64.0519   88.3092   13.1020 N.pl3   1  UNL1       -0.2903
     14 C          63.2412   87.6796   12.0082 C.3     1  UNL1        0.1113
     15 C          62.7882   86.2553   12.1353 C.3     1  UNL1        0.1173
     16 N          63.1459   85.4606   13.3562 N.3     1  UNL1       -0.1520
     17 C          63.9566   86.0902   14.4500 C.3     1  UNL1        0.1173
     18 C          64.4096   87.5146   14.3228 C.3     1  UNL1        0.1113
     19 S          62.6930   84.0363   13.4833 S.O2    1  UNL1        0.0649
     20 O          62.6509   84.1828   14.9755 O.2     1  UNL1       -0.1527
     21 O          62.7351   83.8898   11.9911 O.2     1  UNL1       -0.1527
     22 C          62.2400   82.6120   13.6103 C.ar    1  UNL1        0.1414
     23 C          62.9948   81.5198   12.9122 C.ar    1  UNL1        0.0244
     24 C          62.5417   80.0955   13.0393 C.ar    1  UNL1        0.0353
     25 C          61.3340   79.7634   13.8646 C.ar    1  UNL1        0.1255
     26 N          60.8811   78.3391   13.9916 N.pl3   1  UNL1       -0.3426
     27 N          60.5792   80.8556   14.5627 N.ar    1  UNL1       -0.2282
     28 C          61.0322   82.2799   14.4356 C.ar    1  UNL1        0.1201
     29 H          61.3764   77.6223   13.5334 H       1  UNL1        0.1437
     30 H          60.0884   78.1211   14.5333 H       1  UNL1        0.1437
     31 C          65.8636   94.0065   12.5934 C.3     1  UNL1        0.2841
     32 O          65.1060   94.1325   11.3049 O.3     1  UNL1       -0.3692
     33 H          64.4251   94.8173   11.3958 H       1  UNL1        0.2112
     34 C          66.3165   95.4308   12.4663 C.3     1  UNL1        0.4312
     35 F          66.7695   96.8552   12.3391 F       1  UNL1       -0.1669
     36 F          66.5934   95.2127   11.0083 F       1  UNL1       -0.1669
     37 F          66.1869   95.6612   13.3116 F       1  UNL1       -0.1669
     38 C          66.6211   93.8806   13.8818 C.3     1  UNL1        0.4312
     39 F          67.3788   93.7546   15.1703 F       1  UNL1       -0.1669
     40 F          67.4289   94.0195   13.5462 F       1  UNL1       -0.1669
     41 F          65.5575   93.6052   14.9029 F       1  UNL1       -0.1669
@<TRIPOS>BOND
     1     7     8    1
     2     8     9   ar
     3     9    10   ar
     4    10     1    1
     5     1     2   ar
     6     2     3   ar
     7     3    31    1
     8    31    32    1
     9    31    34    1
    10    34    35    1
    11    34    36    1
    12    34    37    1
    13    31    38    1
    14    38    39    1
    15    38    40    1
    16    38    41    1
    17     3     4   ar
    18     4     5   ar
    19     5     6   ar
    20     6    13    1
    21    13    14    1
    22    14    15    1
    23    15    16    1
    24    16    19    1
    25    19    20    2
    26    19    21    2
    27    19    22    1
    28    22    23   ar
    29    23    24   ar
    30    24    25   ar
    31    25    26    1
    32    25    27   ar
    33    27    28   ar
    34    16    17    1
    35    17    18    1
    36    10    11   ar
    37    11    12   ar
    38    12     8   ar
    39     6     1   ar
    40    18    13    1
    41    28    22   ar
    42    32    33    1
    43    26    29    1
    44    26    30    1
