@<TRIPOS>MOLECULE
*****
 37 39 0 0 0
SMALL
GASTEIGER

@<TRIPOS>ATOM
      1 C          63.7249   86.3037   15.2803 C.ar    1  UNL1        0.0528
      2 C          64.3645   87.4623   14.5742 C.ar    1  UNL1        0.0167
      3 C          64.2438   88.8456   15.1414 C.ar    1  UNL1        0.0505
      4 C          63.4834   89.0704   16.4147 C.ar    1  UNL1        0.0170
      5 C          62.8437   87.9118   17.1208 C.ar    1  UNL1        0.0307
      6 C          62.9645   86.5285   16.5536 C.ar    1  UNL1        0.1402
      7 F          62.3248   85.3699   17.2596 F       1  UNL1       -0.2044
      8 C          64.0806   84.6278   16.1654 C.3     1  UNL1        0.0607
      9 C          63.8456   84.9203   14.7130 C.3     1  UNL1        0.2223
     10 C          63.5686   85.6932   13.4578 C.3     1  UNL1        0.1959
     11 O          63.4940   84.9812   12.1396 O.3     1  UNL1       -0.3357
     12 C          63.6963   83.4962   12.0768 C.3     1  UNL1        0.2740
     13 C          63.8170   82.1129   11.5097 C.3     1  UNL1        0.0512
     14 C          63.9733   82.7233   13.3321 C.2     1  UNL1        0.3217
     15 N          64.1756   81.2383   13.2693 N.pl3   1  UNL1       -0.2480
     16 N          64.0479   83.4353   14.6502 N.2     1  UNL1       -0.0692
     17 H          64.1266   80.7710   12.4042 H       1  UNL1        0.2882
     18 H          64.3574   80.7310   14.0932 H       1  UNL1        0.2882
     19 C          63.4612   83.7888   10.6245 C.3     1  UNL1        0.4305
     20 F          63.2262   84.0813    9.1721 F       1  UNL1       -0.1670
     21 F          64.7896   83.1793   10.2867 F       1  UNL1       -0.1670
     22 F          62.1329   84.3982   10.9623 F       1  UNL1       -0.1670
     23 N          64.8835   90.0042   14.4354 N.am    1  UNL1       -0.2791
     24 C          64.1511   90.7062   13.3304 C.2     1  UNL1        0.2685
     25 O          62.7791   90.2495   12.9315 O.2     1  UNL1       -0.2681
     26 H          65.7840   90.3039   14.6972 H       1  UNL1        0.1552
     27 C          64.7908   91.8647   12.6244 C.ar    1  UNL1        0.1476
     28 N          65.6882   92.8002   13.3790 N.ar    1  UNL1       -0.2373
     29 C          66.3278   93.9588   12.6729 C.ar    1  UNL1        0.1093
     30 C          66.0700   94.1819   11.2122 C.ar    1  UNL1        0.0888
     31 C          65.1726   93.2465   10.4575 C.ar    1  UNL1        0.0276
     32 C          64.5330   92.0879   11.1636 C.ar    1  UNL1        0.0646
     33 N          63.6355   91.1524   10.4089 N.pl3   1  UNL1       -0.3557
     34 H          63.4663   91.2989    9.4502 H       1  UNL1        0.1424
     35 H          63.2157   90.3920   10.8724 H       1  UNL1        0.1424
     36 C          66.7096   95.3405   10.5061 C.1     1  UNL1        0.1020
     37 N          67.3493   96.4992    9.8001 N.1     1  UNL1       -0.1908
@<TRIPOS>BOND
     1     9     8    1
     2     9     1    1
     3     1     2   ar
     4     2     3   ar
     5     3    23    1
     6    23    24   am
     7    24    25    2
     8    24    27    1
     9    27    28   ar
    10    28    29   ar
    11    29    30   ar
    12    30    36    1
    13    36    37    3
    14    30    31   ar
    15    31    32   ar
    16    32    33    1
    17     3     4   ar
    18     4     5   ar
    19     5     6   ar
    20     6     7    1
    21     9    10    1
    22    10    11    1
    23    11    12    1
    24    12    13    1
    25    12    19    1
    26    19    20    1
    27    19    21    1
    28    19    22    1
    29    12    14    1
    30    14    15    1
    31    14    16    2
    32    16     9    1
    33     6     1   ar
    34    32    27   ar
    35    23    26    1
    36    33    34    1
    37    33    35    1
    38    15    17    1
    39    15    18    1
@<TRIPOS>MOLECULE
*****
 37 39 0 0 0
SMALL
GASTEIGER

@<TRIPOS>ATOM
      1 C          63.9023   89.0625   14.6919 C.ar    1  UNL1        0.0528
      2 C          63.9205   87.6755   14.1212 C.ar    1  UNL1        0.0167
      3 C          63.5615   86.5039   14.9863 C.ar    1  UNL1        0.0505
      4 C          63.1844   86.7193   16.4221 C.ar    1  UNL1        0.0170
      5 C          63.1662   88.1064   16.9927 C.ar    1  UNL1        0.0307
      6 C          63.5252   89.2780   16.1276 C.ar    1  UNL1        0.1402
      7 F          63.5070   90.6652   16.6982 F       1  UNL1       -0.2044
      8 C          63.0016   89.7850   13.1473 C.3     1  UNL1        0.0607
      9 C          64.2612   90.2342   13.8267 C.3     1  UNL1        0.2223
     10 C          65.3961   90.2766   14.8066 C.3     1  UNL1        0.1959
     11 O          66.4526   91.3345   14.6854 O.3     1  UNL1       -0.3357
     12 C          66.3740   92.3502   13.5843 C.3     1  UNL1        0.2740
     13 C          66.7329   93.5218   12.7192 C.3     1  UNL1        0.0512
     14 C          65.2391   92.3079   12.6045 C.2     1  UNL1        0.3217
     15 N          65.1606   93.3235   11.5034 N.pl3   1  UNL1       -0.2480
     16 N          64.1827   91.2499   12.7256 N.2     1  UNL1       -0.0692
     17 H          65.8539   94.0179   11.4238 H       1  UNL1        0.2882
     18 H          64.4157   93.2957   10.8603 H       1  UNL1        0.2882
     19 C          67.6336   92.7995   14.2637 C.3     1  UNL1        0.4305
     20 F          68.8933   93.2487   14.9431 F       1  UNL1       -0.1670
     21 F          68.4005   91.7235   13.5535 F       1  UNL1       -0.1670
     22 F          66.8668   93.8754   14.9738 F       1  UNL1       -0.1670
     23 N          63.5797   85.1167   14.4157 N.am    1  UNL1       -0.2791
     24 C          62.8339   84.8169   13.1493 C.2     1  UNL1        0.2685
     25 O          62.0699   85.9042   12.4534 O.2     1  UNL1       -0.2681
     26 H          64.0811   84.4031   14.8724 H       1  UNL1        0.1552
     27 C          62.8520   83.4298   12.5786 C.ar    1  UNL1        0.1476
     28 N          62.5017   82.2573   13.4461 N.ar    1  UNL1       -0.2373
     29 C          62.5198   80.8702   12.8754 C.ar    1  UNL1        0.1093
     30 C          62.8883   80.6556   11.4373 C.ar    1  UNL1        0.0888
     31 C          63.2387   81.8281   10.5699 C.ar    1  UNL1        0.0276
     32 C          63.2206   83.2152   11.1405 C.ar    1  UNL1        0.0646
     33 N          63.5709   84.3877   10.2730 N.pl3   1  UNL1       -0.3557
     34 H          63.8128   84.2469    9.3291 H       1  UNL1        0.1424
     35 H          63.5590   85.2981   10.6476 H       1  UNL1        0.1424
     36 C          62.9065   79.2686   10.8667 C.1     1  UNL1        0.1020
     37 N          62.9246   77.8814   10.2961 N.1     1  UNL1       -0.1908
@<TRIPOS>BOND
     1     9     8    1
     2     9     1    1
     3     1     2   ar
     4     2     3   ar
     5     3    23    1
     6    23    24   am
     7    24    25    2
     8    24    27    1
     9    27    28   ar
    10    28    29   ar
    11    29    30   ar
    12    30    36    1
    13    36    37    3
    14    30    31   ar
    15    31    32   ar
    16    32    33    1
    17     3     4   ar
    18     4     5   ar
    19     5     6   ar
    20     6     7    1
    21     9    10    1
    22    10    11    1
    23    11    12    1
    24    12    13    1
    25    12    19    1
    26    19    20    1
    27    19    21    1
    28    19    22    1
    29    12    14    1
    30    14    15    1
    31    14    16    2
    32    16     9    1
    33     6     1   ar
    34    32    27   ar
    35    23    26    1
    36    33    34    1
    37    33    35    1
    38    15    17    1
    39    15    18    1
@<TRIPOS>MOLECULE
*****
 37 39 0 0 0
SMALL
GASTEIGER

@<TRIPOS>ATOM
      1 C          62.0083   87.1038   10.7643 C.ar    1  UNL1        0.0528
      2 C          62.9789   88.0632   11.3866 C.ar    1  UNL1        0.0167
      3 C          62.6465   89.5240   11.4606 C.ar    1  UNL1        0.0505
      4 C          61.3435   90.0254   10.9122 C.ar    1  UNL1        0.0170
      5 C          60.3729   89.0660   10.2899 C.ar    1  UNL1        0.0307
      6 C          60.7052   87.6052   10.2159 C.ar    1  UNL1        0.1402
      7 F          59.7346   86.6457    9.5935 F       1  UNL1       -0.2044
      8 C          62.3845   85.9942    9.2327 C.3     1  UNL1        0.0607
      9 C          62.3406   85.6429   10.6903 C.3     1  UNL1        0.2223
     10 C          62.1813   85.7990   12.1736 C.3     1  UNL1        0.1959
     11 O          62.3696   84.6162   13.0767 O.3     1  UNL1       -0.3357
     12 C          62.7172   83.2774   12.4965 C.3     1  UNL1        0.2740
     13 C          63.0496   81.8166   12.4224 C.3     1  UNL1        0.0512
     14 C          62.8765   83.1213   11.0132 C.2     1  UNL1        0.3217
     15 N          63.2241   81.7824   10.4329 N.pl3   1  UNL1       -0.2480
     16 N          62.6882   84.3041   10.1101 N.2     1  UNL1       -0.0692
     17 H          63.3477   81.0061   11.0257 H       1  UNL1        0.2882
     18 H          63.3287   81.6800    9.4594 H       1  UNL1        0.2882
     19 C          62.6733   82.9261   13.9541 C.3     1  UNL1        0.4305
     20 F          62.6294   82.5748   15.4118 F       1  UNL1       -0.1670
     21 F          63.7751   83.9076   14.2238 F       1  UNL1       -0.1670
     22 F          61.5716   81.9446   13.6844 F       1  UNL1       -0.1670
     23 N          63.6172   90.4835   12.0830 N.am    1  UNL1       -0.2791
     24 C          64.2571   90.1549   13.3992 C.2     1  UNL1        0.2685
     25 O          63.9263   88.8668   14.0931 O.2     1  UNL1       -0.2681
     26 H          63.8342   91.3290   11.6275 H       1  UNL1        0.1552
     27 C          65.2277   91.1143   14.0216 C.ar    1  UNL1        0.1476
     28 N          66.4260   91.5770   13.2471 N.ar    1  UNL1       -0.2373
     29 C          67.3967   92.5365   13.8695 C.ar    1  UNL1        0.1093
     30 C          67.1689   93.0332   15.2664 C.ar    1  UNL1        0.0888
     31 C          65.9706   92.5705   16.0409 C.ar    1  UNL1        0.0276
     32 C          65.0000   91.6111   15.4185 C.ar    1  UNL1        0.0646
     33 N          63.8016   91.1484   16.1930 N.pl3   1  UNL1       -0.3557
     34 H          63.6521   91.4745   17.1099 H       1  UNL1        0.1424
     35 H          63.1645   90.5187   15.7845 H       1  UNL1        0.1424
     36 C          68.1395   93.9926   15.8888 C.1     1  UNL1        0.1020
     37 N          69.1102   94.9521   16.5111 N.1     1  UNL1       -0.1908
@<TRIPOS>BOND
     1     9     8    1
     2     9     1    1
     3     1     2   ar
     4     2     3   ar
     5     3    23    1
     6    23    24   am
     7    24    25    2
     8    24    27    1
     9    27    28   ar
    10    28    29   ar
    11    29    30   ar
    12    30    36    1
    13    36    37    3
    14    30    31   ar
    15    31    32   ar
    16    32    33    1
    17     3     4   ar
    18     4     5   ar
    19     5     6   ar
    20     6     7    1
    21     9    10    1
    22    10    11    1
    23    11    12    1
    24    12    13    1
    25    12    19    1
    26    19    20    1
    27    19    21    1
    28    19    22    1
    29    12    14    1
    30    14    15    1
    31    14    16    2
    32    16     9    1
    33     6     1   ar
    34    32    27   ar
    35    23    26    1
    36    33    34    1
    37    33    35    1
    38    15    17    1
    39    15    18    1
@<TRIPOS>MOLECULE
*****
 37 39 0 0 0
SMALL
GASTEIGER

@<TRIPOS>ATOM
      1 C          63.0712   89.9587   11.6497 C.ar    1  UNL1        0.0528
      2 C          62.9944   88.4857   11.9225 C.ar    1  UNL1        0.0167
      3 C          62.1951   87.5960   11.0172 C.ar    1  UNL1        0.0505
      4 C          61.4726   88.1794    9.8391 C.ar    1  UNL1        0.0170
      5 C          61.5494   89.6523    9.5664 C.ar    1  UNL1        0.0307
      6 C          62.3487   90.5420   10.4717 C.ar    1  UNL1        0.1402
      7 F          62.4255   92.0150   10.1990 F       1  UNL1       -0.2044
      8 C          63.1329   90.0333   13.5757 C.3     1  UNL1        0.0607
      9 C          63.8705   90.8484   12.5551 C.3     1  UNL1        0.2223
     10 C          64.3304   91.3545   11.2201 C.3     1  UNL1        0.1959
     11 O          65.3334   92.4673   11.1448 O.3     1  UNL1       -0.3357
     12 C          65.8766   93.0739   12.4046 C.3     1  UNL1        0.2740
     13 C          66.6758   93.9636   13.3099 C.3     1  UNL1        0.0512
     14 C          65.4167   92.5678   13.7396 C.2     1  UNL1        0.3217
     15 N          65.9598   93.1744   14.9994 N.pl3   1  UNL1       -0.2480
     16 N          64.4136   91.4551   13.8149 N.2     1  UNL1       -0.0692
     17 H          66.6181   93.9048   14.9500 H       1  UNL1        0.2882
     18 H          65.6579   92.8422   15.8756 H       1  UNL1        0.2882
     19 C          66.6141   93.8890   11.3840 C.3     1  UNL1        0.4305
     20 F          67.3516   94.7042   10.3633 F       1  UNL1       -0.1670
     21 F          65.9460   95.1316   11.8936 F       1  UNL1       -0.1670
     22 F          67.2821   92.6465   10.8744 F       1  UNL1       -0.1670
     23 N          62.1183   86.1230   11.2899 N.am    1  UNL1       -0.2791
     24 C          62.8012   85.5467   12.4947 C.2     1  UNL1        0.2685
     25 O          63.5609   86.4435   13.4268 O.2     1  UNL1       -0.2681
     26 H          61.6198   85.5344   10.6781 H       1  UNL1        0.1552
     27 C          62.7245   84.0737   12.7674 C.ar    1  UNL1        0.1476
     28 N          62.9959   83.0920   11.6663 N.ar    1  UNL1       -0.2373
     29 C          62.9192   81.6189   11.9391 C.ar    1  UNL1        0.1093
     30 C          62.5709   81.1277   13.3129 C.ar    1  UNL1        0.0888
     31 C          62.2994   82.1095   14.4140 C.ar    1  UNL1        0.0276
     32 C          62.3762   83.5825   14.1413 C.ar    1  UNL1        0.0646
     33 N          62.1047   84.5643   15.2424 N.pl3   1  UNL1       -0.3557
     34 H          61.8761   84.2419   16.1440 H       1  UNL1        0.1424
     35 H          62.1551   85.5310   15.0633 H       1  UNL1        0.1424
     36 C          62.4941   79.6548   13.5856 C.1     1  UNL1        0.1020
     37 N          62.4174   78.1817   13.8584 N.1     1  UNL1       -0.1908
@<TRIPOS>BOND
     1     9     8    1
     2     9     1    1
     3     1     2   ar
     4     2     3   ar
     5     3    23    1
     6    23    24   am
     7    24    25    2
     8    24    27    1
     9    27    28   ar
    10    28    29   ar
    11    29    30   ar
    12    30    36    1
    13    36    37    3
    14    30    31   ar
    15    31    32   ar
    16    32    33    1
    17     3     4   ar
    18     4     5   ar
    19     5     6   ar
    20     6     7    1
    21     9    10    1
    22    10    11    1
    23    11    12    1
    24    12    13    1
    25    12    19    1
    26    19    20    1
    27    19    21    1
    28    19    22    1
    29    12    14    1
    30    14    15    1
    31    14    16    2
    32    16     9    1
    33     6     1   ar
    34    32    27   ar
    35    23    26    1
    36    33    34    1
    37    33    35    1
    38    15    17    1
    39    15    18    1
@<TRIPOS>MOLECULE
*****
 37 39 0 0 0
SMALL
GASTEIGER

@<TRIPOS>ATOM
      1 C          63.9496   88.7185   14.9832 C.ar    1  UNL1        0.0528
      2 C          63.9733   87.3423   14.3871 C.ar    1  UNL1        0.0167
      3 C          63.5413   86.1625   15.2065 C.ar    1  UNL1        0.0505
      4 C          63.0855   86.3589   16.6220 C.ar    1  UNL1        0.0170
      5 C          63.0617   87.7351   17.2181 C.ar    1  UNL1        0.0307
      6 C          63.4938   88.9149   16.3987 C.ar    1  UNL1        0.1402
      7 F          63.4700   90.2912   16.9949 F       1  UNL1       -0.2044
      8 C          65.1784   90.1416   15.4112 C.3     1  UNL1        0.0607
      9 C          64.3816   89.8983   14.1639 C.3     1  UNL1        0.2223
     10 C          63.4348   89.2453   13.2011 C.3     1  UNL1        0.1959
     11 O          63.1967   89.8566   11.8521 O.3     1  UNL1       -0.3357
     12 C          63.9055   91.1209   11.4660 C.3     1  UNL1        0.2740
     13 C          64.3375   92.3008   10.6467 C.3     1  UNL1        0.0512
     14 C          64.8523   91.7740   12.4288 C.2     1  UNL1        0.3217
     15 N          65.5611   93.0383   12.0427 N.pl3   1  UNL1       -0.2480
     16 N          65.0904   91.1627   13.7777 N.2     1  UNL1       -0.0692
     17 H          65.4048   93.4396   11.1573 H       1  UNL1        0.2882
     18 H          66.1825   93.4670   12.6746 H       1  UNL1        0.2882
     19 C          63.1086   90.8777   10.2186 C.3     1  UNL1        0.4305
     20 F          62.3118   90.6344    8.9712 F       1  UNL1       -0.1670
     21 F          63.3256   92.3023    9.8021 F       1  UNL1       -0.1670
     22 F          62.8917   89.4531   10.6351 F       1  UNL1       -0.1670
     23 N          63.5650   84.7862   14.6104 N.am    1  UNL1       -0.2791
     24 C          62.8073   84.5028   13.3472 C.2     1  UNL1        0.2685
     25 O          62.0257   85.5957   12.6802 O.2     1  UNL1       -0.2681
     26 H          64.0780   84.0689   15.0481 H       1  UNL1        0.1552
     27 C          62.8310   83.1266   12.7511 C.ar    1  UNL1        0.1476
     28 N          62.5130   81.9342   13.6039 N.ar    1  UNL1       -0.2373
     29 C          62.5367   80.5580   13.0077 C.ar    1  UNL1        0.1093
     30 C          62.8785   80.3741   11.5588 C.ar    1  UNL1        0.0888
     31 C          63.1964   81.5664   10.7060 C.ar    1  UNL1        0.0276
     32 C          63.1727   82.9426   11.3021 C.ar    1  UNL1        0.0646
     33 N          63.4907   84.1349   10.4494 N.pl3   1  UNL1       -0.3557
     34 H          63.7150   84.0142    9.4984 H       1  UNL1        0.1424
     35 H          63.4751   85.0382   10.8406 H       1  UNL1        0.1424
     36 C          62.9022   78.9978   10.9627 C.1     1  UNL1        0.1020
     37 N          62.9259   77.6216   10.3665 N.1     1  UNL1       -0.1908
@<TRIPOS>BOND
     1     9     8    1
     2     9     1    1
     3     1     2   ar
     4     2     3   ar
     5     3    23    1
     6    23    24   am
     7    24    25    2
     8    24    27    1
     9    27    28   ar
    10    28    29   ar
    11    29    30   ar
    12    30    36    1
    13    36    37    3
    14    30    31   ar
    15    31    32   ar
    16    32    33    1
    17     3     4   ar
    18     4     5   ar
    19     5     6   ar
    20     6     7    1
    21     9    10    1
    22    10    11    1
    23    11    12    1
    24    12    13    1
    25    12    19    1
    26    19    20    1
    27    19    21    1
    28    19    22    1
    29    12    14    1
    30    14    15    1
    31    14    16    2
    32    16     9    1
    33     6     1   ar
    34    32    27   ar
    35    23    26    1
    36    33    34    1
    37    33    35    1
    38    15    17    1
    39    15    18    1
@<TRIPOS>MOLECULE
*****
 37 39 0 0 0
SMALL
GASTEIGER

@<TRIPOS>ATOM
      1 C          63.5566   90.1353   12.7470 C.ar    1  UNL1        0.0528
      2 C          63.3410   88.6529   12.8252 C.ar    1  UNL1        0.0167
      3 C          62.8454   87.9028   11.6246 C.ar    1  UNL1        0.0505
      4 C          62.5654   88.6349   10.3457 C.ar    1  UNL1        0.0170
      5 C          62.7809   90.1173   10.2675 C.ar    1  UNL1        0.0307
      6 C          63.2765   90.8674   11.4681 C.ar    1  UNL1        0.1402
      7 F          63.4921   92.3499   11.3899 F       1  UNL1       -0.2044
      8 C          62.6210   90.6749   14.3446 C.3     1  UNL1        0.0607
      9 C          64.0522   90.8855   13.9477 C.3     1  UNL1        0.2223
     10 C          65.3112   90.8355   13.1338 C.3     1  UNL1        0.1959
     11 O          66.5687   91.4627   13.6584 O.3     1  UNL1       -0.3357
     12 C          66.5673   92.1398   14.9969 C.3     1  UNL1        0.2740
     13 C          67.0628   92.8900   16.1976 C.3     1  UNL1        0.0512
     14 C          65.3083   92.1897   15.8108 C.2     1  UNL1        0.3217
     15 N          65.3069   92.8668   17.1493 N.pl3   1  UNL1       -0.2480
     16 N          64.0507   91.5626   15.2862 N.2     1  UNL1       -0.0692
     17 H          66.1323   93.2784   17.4936 H       1  UNL1        0.2882
     18 H          64.4805   92.8996   17.6835 H       1  UNL1        0.2882
     19 C          67.9985   92.3504   14.6000 C.3     1  UNL1        0.4305
     20 F          69.4296   92.5609   14.2031 F       1  UNL1       -0.1670
     21 F          67.5539   92.8206   13.2467 F       1  UNL1       -0.1670
     22 F          68.4429   91.8801   15.9533 F       1  UNL1       -0.1670
     23 N          62.6298   86.4203   11.7027 N.am    1  UNL1       -0.2791
     24 C          63.1710   85.6441   12.8666 C.2     1  UNL1        0.2685
     25 O          63.9277   86.3504   13.9524 O.2     1  UNL1       -0.2681
     26 H          62.1332   85.9569   10.9901 H       1  UNL1        0.1552
     27 C          62.9555   84.1618   12.9448 C.ar    1  UNL1        0.1476
     28 N          63.2514   83.2971   11.7554 N.ar    1  UNL1       -0.2373
     29 C          63.0358   81.8147   11.8337 C.ar    1  UNL1        0.1093
     30 C          62.5244   81.1970   13.1013 C.ar    1  UNL1        0.0888
     31 C          62.2284   82.0618   14.2907 C.ar    1  UNL1        0.0276
     32 C          62.4440   83.5441   14.2125 C.ar    1  UNL1        0.0646
     33 N          62.1481   84.4088   15.4019 N.pl3   1  UNL1       -0.3557
     34 H          61.8124   84.0034   16.2339 H       1  UNL1        0.1424
     35 H          62.2895   85.3817   15.3506 H       1  UNL1        0.1424
     36 C          62.3088   79.7147   13.1795 C.1     1  UNL1        0.1020
     37 N          62.0933   78.2323   13.2578 N.1     1  UNL1       -0.1908
@<TRIPOS>BOND
     1     9     8    1
     2     9     1    1
     3     1     2   ar
     4     2     3   ar
     5     3    23    1
     6    23    24   am
     7    24    25    2
     8    24    27    1
     9    27    28   ar
    10    28    29   ar
    11    29    30   ar
    12    30    36    1
    13    36    37    3
    14    30    31   ar
    15    31    32   ar
    16    32    33    1
    17     3     4   ar
    18     4     5   ar
    19     5     6   ar
    20     6     7    1
    21     9    10    1
    22    10    11    1
    23    11    12    1
    24    12    13    1
    25    12    19    1
    26    19    20    1
    27    19    21    1
    28    19    22    1
    29    12    14    1
    30    14    15    1
    31    14    16    2
    32    16     9    1
    33     6     1   ar
    34    32    27   ar
    35    23    26    1
    36    33    34    1
    37    33    35    1
    38    15    17    1
    39    15    18    1
@<TRIPOS>MOLECULE
*****
 37 39 0 0 0
SMALL
GASTEIGER

@<TRIPOS>ATOM
      1 C          61.9052   87.5724   10.9724 C.ar    1  UNL1        0.0528
      2 C          62.8615   88.5526   11.5844 C.ar    1  UNL1        0.0167
      3 C          62.4151   89.9551   11.8737 C.ar    1  UNL1        0.0505
      4 C          61.0124   90.3773   11.5510 C.ar    1  UNL1        0.0170
      5 C          60.0561   89.3971   10.9391 C.ar    1  UNL1        0.0307
      6 C          60.5025   87.9946   10.6498 C.ar    1  UNL1        0.1402
      7 F          59.5462   87.0142   10.0378 F       1  UNL1       -0.2044
      8 C          61.9475   86.6040    9.3053 C.3     1  UNL1        0.0607
      9 C          62.3516   86.1698   10.6831 C.3     1  UNL1        0.2223
     10 C          62.6006   86.2227   12.1613 C.3     1  UNL1        0.1959
     11 O          63.1557   85.0239   12.8717 O.3     1  UNL1       -0.3357
     12 C          63.4617   83.7721   12.1038 C.3     1  UNL1        0.2740
     13 C          63.9081   82.3696   11.8145 C.3     1  UNL1        0.0512
     14 C          63.2127   83.7192   10.6256 C.2     1  UNL1        0.3217
     15 N          63.5188   82.4675    9.8578 N.pl3   1  UNL1       -0.2480
     16 N          62.6576   84.9181    9.9152 N.2     1  UNL1       -0.0692
     17 H          63.8831   81.6807   10.3240 H       1  UNL1        0.2882
     18 H          63.3553   82.4328    8.8876 H       1  UNL1        0.2882
     19 C          63.8658   83.3379   13.4816 C.3     1  UNL1        0.4305
     20 F          64.2699   82.9037   14.8594 F       1  UNL1       -0.1670
     21 F          63.2828   81.9799   13.2246 F       1  UNL1       -0.1670
     22 F          64.4488   84.6958   13.7385 F       1  UNL1       -0.1670
     23 N          63.3714   90.9354   12.4857 N.am    1  UNL1       -0.2791
     24 C          64.3734   90.4717   13.5010 C.2     1  UNL1        0.2685
     25 O          64.4191   89.0276   13.9044 O.2     1  UNL1       -0.2681
     26 H          63.3415   91.8832   12.2209 H       1  UNL1        0.1552
     27 C          65.3297   91.4519   14.1130 C.ar    1  UNL1        0.1476
     28 N          65.2645   91.7458   15.5825 N.ar    1  UNL1       -0.2373
     29 C          66.2208   92.7262   16.1945 C.ar    1  UNL1        0.1093
     30 C          67.2424   93.4125   15.3370 C.ar    1  UNL1        0.0888
     31 C          67.3076   93.1186   13.8675 C.ar    1  UNL1        0.0276
     32 C          66.3513   92.1384   13.2555 C.ar    1  UNL1        0.0646
     33 N          66.4165   91.8445   11.7860 N.pl3   1  UNL1       -0.3557
     34 H          67.0870   92.2950   11.2232 H       1  UNL1        0.1424
     35 H          65.7889   91.2011   11.3844 H       1  UNL1        0.1424
     36 C          68.1987   94.3928   15.9489 C.1     1  UNL1        0.1020
     37 N          69.1550   95.3731   16.5610 N.1     1  UNL1       -0.1908
@<TRIPOS>BOND
     1     9     8    1
     2     9     1    1
     3     1     2   ar
     4     2     3   ar
     5     3    23    1
     6    23    24   am
     7    24    25    2
     8    24    27    1
     9    27    28   ar
    10    28    29   ar
    11    29    30   ar
    12    30    36    1
    13    36    37    3
    14    30    31   ar
    15    31    32   ar
    16    32    33    1
    17     3     4   ar
    18     4     5   ar
    19     5     6   ar
    20     6     7    1
    21     9    10    1
    22    10    11    1
    23    11    12    1
    24    12    13    1
    25    12    19    1
    26    19    20    1
    27    19    21    1
    28    19    22    1
    29    12    14    1
    30    14    15    1
    31    14    16    2
    32    16     9    1
    33     6     1   ar
    34    32    27   ar
    35    23    26    1
    36    33    34    1
    37    33    35    1
    38    15    17    1
    39    15    18    1
