@<TRIPOS>MOLECULE
*****
 26 29 0 0 0
SMALL
GASTEIGER

@<TRIPOS>ATOM
      1 C          63.8183   84.9203   13.3321 C.2     1  UNL1        0.1203
      2 C          64.2705   83.7029   12.5814 C.2     1  UNL1        0.0299
      3 C          63.8367   83.4937   11.1609 C.2     1  UNL1       -0.0018
      4 C          64.2888   82.2763   10.4101 C.3     1  UNL1        0.0327
      5 C          62.9506   84.5018   10.4910 C.ar    1  UNL1        0.0754
      6 N          62.5167   84.2924    9.0704 N.ar    1  UNL1       -0.2257
      7 C          61.6306   85.3005    8.4006 C.ar    1  UNL1        0.1846
      8 N          61.0456   85.3629    7.0208 N.2     1  UNL1       -0.1288
      9 N          60.2319   86.6188    6.9187 N.2     1  UNL1       -0.1508
     10 C          60.3140   87.3327    8.2354 C.2     1  UNL1        0.0837
     11 C          59.6484   88.6329    8.5764 C.3     1  UNL1        0.0541
     12 C          61.1785   86.5179    9.1513 C.ar    1  UNL1        0.0512
     13 C          61.6123   86.7272   10.5718 C.ar    1  UNL1        0.0120
     14 C          62.4984   85.7191   11.2416 C.ar    1  UNL1        0.0016
     15 C          62.9322   85.9284   12.6623 C.3     1  UNL1        0.0914
     16 C          61.1601   87.9445   11.3226 C.3     1  UNL1        0.1724
     17 O          59.7845   87.9899   11.9190 O.3     1  UNL1       -0.3742
     18 H          59.3221   87.1586   11.7289 H       1  UNL1        0.2113
     19 C          62.0835   89.1165   11.4769 C.ar    1  UNL1        0.0899
     20 C          62.4274   89.9621   10.2867 C.ar    1  UNL1        0.0175
     21 C          63.3509   91.1341   10.4411 C.ar    1  UNL1        0.0029
     22 C          63.9303   91.4604   11.7856 C.ar    1  UNL1        0.0207
     23 C          63.5864   90.6147   12.9758 C.ar    1  UNL1        0.0986
     24 N          62.6630   89.4427   12.8215 N.ar    1  UNL1       -0.2454
     25 C          64.2669   86.5113   15.3366 C.3     1  UNL1        0.2520
     26 O          64.2522   85.1296   14.7526 O.2     1  UNL1       -0.4754
@<TRIPOS>BOND
     1    25    26    1
     2    26     1    1
     3     1     2    2
     4     2     3    1
     5     3     4    1
     6     3     5    2
     7     5     6   ar
     8     6     7   ar
     9     7     8    1
    10     8     9    2
    11     9    10    1
    12    10    11    1
    13    10    12    2
    14    12    13   ar
    15    13    16    1
    16    16    17    1
    17    16    19    1
    18    19    20   ar
    19    20    21   ar
    20    21    22   ar
    21    22    23   ar
    22    23    24   ar
    23    13    14   ar
    24    14    15    1
    25    15     1    1
    26    14     5   ar
    27    12     7   ar
    28    24    19   ar
    29    17    18    1
@<TRIPOS>MOLECULE
*****
 26 29 0 0 0
SMALL
GASTEIGER

@<TRIPOS>ATOM
      1 C          62.6993   83.5522   12.5632 C.2     1  UNL1        0.1203
      2 C          63.6874   83.8739   13.6450 C.2     1  UNL1        0.0299
      3 C          64.0852   85.2978   13.8982 C.2     1  UNL1       -0.0018
      4 C          65.0732   85.6196   14.9800 C.3     1  UNL1        0.0327
      5 C          63.4950   86.4001   13.0694 C.ar    1  UNL1        0.0754
      6 N          63.8929   87.8241   13.3226 N.ar    1  UNL1       -0.2257
      7 C          63.3027   88.9264   12.4939 C.ar    1  UNL1        0.1846
      8 N          63.5024   90.4129   12.5122 N.2     1  UNL1       -0.1288
      9 N          62.6378   91.0099   11.4417 N.2     1  UNL1       -0.1508
     10 C          61.9037   89.8924   10.7618 C.2     1  UNL1        0.0837
     11 C          60.9298   90.0371    9.6302 C.3     1  UNL1        0.0541
     12 C          62.3146   88.6046   11.4121 C.ar    1  UNL1        0.0512
     13 C          61.9168   87.1807   11.1590 C.ar    1  UNL1        0.0120
     14 C          62.5070   86.0785   11.9877 C.ar    1  UNL1        0.0016
     15 C          62.1091   84.6545   11.7345 C.3     1  UNL1        0.0914
     16 C          60.9288   86.8590   10.0771 C.3     1  UNL1        0.1724
     17 O          59.4972   87.2842   10.2182 O.3     1  UNL1       -0.3742
     18 H          59.3803   87.7520   11.0599 H       1  UNL1        0.2113
     19 C          61.3723   86.1121    8.8543 C.ar    1  UNL1        0.0899
     20 C          62.8072   85.7006    8.7061 C.ar    1  UNL1        0.0175
     21 C          63.2506   84.9537    7.4831 C.ar    1  UNL1        0.0029
     22 C          62.2594   84.6183    6.4085 C.ar    1  UNL1        0.0207
     23 C          60.8245   85.0298    6.5568 C.ar    1  UNL1        0.0986
     24 N          60.3810   85.7767    7.7797 N.ar    1  UNL1       -0.2454
     25 C          61.9121   81.2431   13.4568 C.3     1  UNL1        0.2520
     26 O          62.3015   82.1283   12.3100 O.2     1  UNL1       -0.4754
@<TRIPOS>BOND
     1    25    26    1
     2    26     1    1
     3     1     2    2
     4     2     3    1
     5     3     4    1
     6     3     5    2
     7     5     6   ar
     8     6     7   ar
     9     7     8    1
    10     8     9    2
    11     9    10    1
    12    10    11    1
    13    10    12    2
    14    12    13   ar
    15    13    16    1
    16    16    17    1
    17    16    19    1
    18    19    20   ar
    19    20    21   ar
    20    21    22   ar
    21    22    23   ar
    22    23    24   ar
    23    13    14   ar
    24    14    15    1
    25    15     1    1
    26    14     5   ar
    27    12     7   ar
    28    24    19   ar
    29    17    18    1
@<TRIPOS>MOLECULE
*****
 26 29 0 0 0
SMALL
GASTEIGER

@<TRIPOS>ATOM
      1 C          64.0840   87.5186   14.3616 C.2     1  UNL1        0.1203
      2 C          63.6375   87.3050   15.7777 C.2     1  UNL1        0.0299
      3 C          63.1005   85.9701   16.2014 C.2     1  UNL1       -0.0018
      4 C          62.6541   85.7565   17.6174 C.3     1  UNL1        0.0327
      5 C          63.0100   84.8488   15.2092 C.ar    1  UNL1        0.0754
      6 N          62.4729   83.5138   15.6330 N.ar    1  UNL1       -0.2257
      7 C          62.3823   82.3925   14.6408 C.ar    1  UNL1        0.1846
      8 N          61.8998   80.9779   14.7663 N.2     1  UNL1       -0.1288
      9 N          62.0480   80.3172   13.4278 N.2     1  UNL1       -0.1508
     10 C          62.6221   81.3235   12.4751 C.2     1  UNL1        0.0837
     11 C          62.9348   81.0884   11.0270 C.3     1  UNL1        0.0541
     12 C          62.8288   82.6062   13.2248 C.ar    1  UNL1        0.0512
     13 C          63.3658   83.9411   12.8010 C.ar    1  UNL1        0.0120
     14 C          63.4564   85.0624   13.7932 C.ar    1  UNL1        0.0016
     15 C          63.9934   86.3973   13.3694 C.3     1  UNL1        0.0914
     16 C          63.8123   84.1548   11.3850 C.3     1  UNL1        0.1724
     17 O          65.1572   83.6615   10.9401 O.3     1  UNL1       -0.3742
     18 H          65.6062   83.2311   11.6845 H       1  UNL1        0.2113
     19 C          62.9138   84.8617   10.4139 C.ar    1  UNL1        0.0899
     20 C          63.1995   84.7953    8.9429 C.ar    1  UNL1        0.0175
     21 C          62.3010   85.5023    7.9718 C.ar    1  UNL1        0.0029
     22 C          61.1169   86.2755    8.4717 C.ar    1  UNL1        0.0207
     23 C          60.8312   86.3418    9.9428 C.ar    1  UNL1        0.0986
     24 N          61.7297   85.6349   10.9139 N.ar    1  UNL1       -0.2454
     25 C          63.6772   89.9511   13.5443 C.3     1  UNL1        0.2520
     26 O          64.6210   88.8535   13.9378 O.2     1  UNL1       -0.4754
@<TRIPOS>BOND
     1    25    26    1
     2    26     1    1
     3     1     2    2
     4     2     3    1
     5     3     4    1
     6     3     5    2
     7     5     6   ar
     8     6     7   ar
     9     7     8    1
    10     8     9    2
    11     9    10    1
    12    10    11    1
    13    10    12    2
    14    12    13   ar
    15    13    16    1
    16    16    17    1
    17    16    19    1
    18    19    20   ar
    19    20    21   ar
    20    21    22   ar
    21    22    23   ar
    22    23    24   ar
    23    13    14   ar
    24    14    15    1
    25    15     1    1
    26    14     5   ar
    27    12     7   ar
    28    24    19   ar
    29    17    18    1
@<TRIPOS>MOLECULE
*****
 26 29 0 0 0
SMALL
GASTEIGER

@<TRIPOS>ATOM
      1 C          61.0855   85.9321    8.3257 C.2     1  UNL1        0.1203
      2 C          60.7175   87.3678    8.5569 C.2     1  UNL1        0.0299
      3 C          61.1767   88.0686    9.8011 C.2     1  UNL1       -0.0018
      4 C          60.8088   89.5043   10.0324 C.3     1  UNL1        0.0327
      5 C          62.0040   87.3338   10.8140 C.ar    1  UNL1        0.0754
      6 N          62.4632   88.0347   12.0582 N.ar    1  UNL1       -0.2257
      7 C          63.2904   87.2999   13.0710 C.ar    1  UNL1        0.1846
      8 N          63.8830   87.7250   14.3817 N.2     1  UNL1       -0.1288
      9 N          64.6172   86.5520   14.9605 N.2     1  UNL1       -0.1508
     10 C          64.4784   85.4020   14.0074 C.2     1  UNL1        0.0837
     11 C          65.0579   84.0306   14.1902 C.3     1  UNL1        0.0541
     12 C          63.6583   85.8643   12.8396 C.ar    1  UNL1        0.0512
     13 C          63.1991   85.1634   11.5955 C.ar    1  UNL1        0.0120
     14 C          62.3719   85.8982   10.5827 C.ar    1  UNL1        0.0016
     15 C          61.9127   85.1973    9.3385 C.3     1  UNL1        0.0914
     16 C          63.5671   83.7278   11.3641 C.3     1  UNL1        0.1724
     17 O          64.5799   83.3726   10.3162 O.3     1  UNL1       -0.3742
     18 H          64.8957   84.1817    9.8843 H       1  UNL1        0.2113
     19 C          62.9223   82.6473   12.1807 C.ar    1  UNL1        0.0899
     20 C          63.0405   81.2138   11.7550 C.ar    1  UNL1        0.0175
     21 C          62.3956   80.1334   12.5716 C.ar    1  UNL1        0.0029
     22 C          61.6326   80.4863   13.8138 C.ar    1  UNL1        0.0207
     23 C          61.5144   81.9199   14.2395 C.ar    1  UNL1        0.0986
     24 N          62.1592   83.0004   13.4229 N.ar    1  UNL1       -0.2454
     25 C          61.6124   84.4810    6.2359 C.3     1  UNL1        0.2520
     26 O          60.6263   85.2313    7.0815 O.2     1  UNL1       -0.4754
@<TRIPOS>BOND
     1    25    26    1
     2    26     1    1
     3     1     2    2
     4     2     3    1
     5     3     4    1
     6     3     5    2
     7     5     6   ar
     8     6     7   ar
     9     7     8    1
    10     8     9    2
    11     9    10    1
    12    10    11    1
    13    10    12    2
    14    12    13   ar
    15    13    16    1
    16    16    17    1
    17    16    19    1
    18    19    20   ar
    19    20    21   ar
    20    21    22   ar
    21    22    23   ar
    22    23    24   ar
    23    13    14   ar
    24    14    15    1
    25    15     1    1
    26    14     5   ar
    27    12     7   ar
    28    24    19   ar
    29    17    18    1
@<TRIPOS>MOLECULE
*****
 26 29 0 0 0
SMALL
GASTEIGER

@<TRIPOS>ATOM
      1 C          62.9555   89.0186   11.7834 C.2     1  UNL1        0.1203
      2 C          62.1442   88.6487   10.5771 C.2     1  UNL1        0.0299
      3 C          61.8480   87.2074   10.2857 C.2     1  UNL1       -0.0018
      4 C          61.0368   86.8374    9.0795 C.3     1  UNL1        0.0327
      5 C          62.3631   86.1360   11.2006 C.ar    1  UNL1        0.0754
      6 N          62.0669   84.6946   10.9091 N.ar    1  UNL1       -0.2257
      7 C          62.5819   83.6233   11.8240 C.ar    1  UNL1        0.1846
      8 N          62.4513   82.1293   11.7935 N.2     1  UNL1       -0.1288
      9 N          63.1819   81.5759   12.9810 N.2     1  UNL1       -0.1508
     10 C          63.7640   82.7279   13.7453 C.2     1  UNL1        0.0837
     11 C          64.5745   82.6314   15.0037 C.3     1  UNL1        0.0541
     12 C          63.3931   83.9933   13.0302 C.ar    1  UNL1        0.0512
     13 C          63.6893   85.4346   13.3216 C.ar    1  UNL1        0.0120
     14 C          63.1743   86.5059   12.4068 C.ar    1  UNL1        0.0016
     15 C          63.4705   87.9472   12.6983 C.3     1  UNL1        0.0914
     16 C          64.5006   85.8045   14.5279 C.3     1  UNL1        0.1724
     17 O          65.9672   85.4925   14.5699 O.3     1  UNL1       -0.3742
     18 H          66.2285   85.0549   13.7446 H       1  UNL1        0.2113
     19 C          63.8452   86.4865   15.6921 C.ar    1  UNL1        0.0899
     20 C          63.2741   85.6715   16.8143 C.ar    1  UNL1        0.0175
     21 C          62.6187   86.3535   17.9786 C.ar    1  UNL1        0.0029
     22 C          62.5346   87.8505   18.0205 C.ar    1  UNL1        0.0207
     23 C          63.1058   88.6656   16.8982 C.ar    1  UNL1        0.0986
     24 N          63.7611   87.9836   15.7340 N.ar    1  UNL1       -0.2454
     25 C          63.9500   90.8397   13.3470 C.3     1  UNL1        0.2520
     26 O          63.2517   90.4598   12.0748 O.2     1  UNL1       -0.4754
@<TRIPOS>BOND
     1    25    26    1
     2    26     1    1
     3     1     2    2
     4     2     3    1
     5     3     4    1
     6     3     5    2
     7     5     6   ar
     8     6     7   ar
     9     7     8    1
    10     8     9    2
    11     9    10    1
    12    10    11    1
    13    10    12    2
    14    12    13   ar
    15    13    16    1
    16    16    17    1
    17    16    19    1
    18    19    20   ar
    19    20    21   ar
    20    21    22   ar
    21    22    23   ar
    22    23    24   ar
    23    13    14   ar
    24    14    15    1
    25    15     1    1
    26    14     5   ar
    27    12     7   ar
    28    24    19   ar
    29    17    18    1
@<TRIPOS>MOLECULE
*****
 26 29 0 0 0
SMALL
GASTEIGER

@<TRIPOS>ATOM
      1 C          59.8722   92.3896    3.9030 C.2     1  UNL1        0.1203
      2 C          61.1477   91.6241    4.0956 C.2     1  UNL1        0.0299
      3 C          62.2637   91.7644    3.1033 C.2     1  UNL1       -0.0018
      4 C          63.5393   90.9989    3.2959 C.3     1  UNL1        0.0327
      5 C          62.1043   92.6703    1.9183 C.ar    1  UNL1        0.0754
      6 N          63.2204   92.8106    0.9260 N.ar    1  UNL1       -0.2257
      7 C          63.0610   93.7165   -0.2589 C.ar    1  UNL1        0.1846
      8 N          63.9804   94.0543   -1.3948 N.2     1  UNL1       -0.1288
      9 N          63.2732   95.0287   -2.2895 N.2     1  UNL1       -0.1508
     10 C          61.9166   95.2930   -1.7065 C.2     1  UNL1        0.0837
     11 C          60.8743   96.2077   -2.2781 C.3     1  UNL1        0.0541
     12 C          61.7855   94.4820   -0.4514 C.ar    1  UNL1        0.0512
     13 C          60.6694   94.3417    0.5409 C.ar    1  UNL1        0.0120
     14 C          60.8289   93.4358    1.7258 C.ar    1  UNL1        0.0016
     15 C          59.7127   93.2955    2.7181 C.3     1  UNL1        0.0914
     16 C          59.3939   95.1072    0.3483 C.3     1  UNL1        0.1724
     17 O          59.2498   96.4828    0.9291 O.3     1  UNL1       -0.3742
     18 H          60.0659   96.7245    1.3942 H       1  UNL1        0.2113
     19 C          58.2626   94.4972   -0.4249 C.ar    1  UNL1        0.0899
     20 C          58.1918   93.0095   -0.6027 C.ar    1  UNL1        0.0175
     21 C          57.0604   92.3995   -1.3759 C.ar    1  UNL1        0.0029
     22 C          55.9998   93.2773   -1.9714 C.ar    1  UNL1        0.0207
     23 C          56.0706   94.7651   -1.7937 C.ar    1  UNL1        0.0986
     24 N          57.2020   95.3751   -1.0204 N.ar    1  UNL1       -0.2454
     25 C          58.4981   90.9253    5.5516 C.3     1  UNL1        0.2520
     26 O          58.7561   92.2493    4.8953 O.2     1  UNL1       -0.4754
@<TRIPOS>BOND
     1    25    26    1
     2    26     1    1
     3     1     2    2
     4     2     3    1
     5     3     4    1
     6     3     5    2
     7     5     6   ar
     8     6     7   ar
     9     7     8    1
    10     8     9    2
    11     9    10    1
    12    10    11    1
    13    10    12    2
    14    12    13   ar
    15    13    16    1
    16    16    17    1
    17    16    19    1
    18    19    20   ar
    19    20    21   ar
    20    21    22   ar
    21    22    23   ar
    22    23    24   ar
    23    13    14   ar
    24    14    15    1
    25    15     1    1
    26    14     5   ar
    27    12     7   ar
    28    24    19   ar
    29    17    18    1
@<TRIPOS>MOLECULE
*****
 26 29 0 0 0
SMALL
GASTEIGER

@<TRIPOS>ATOM
      1 C          59.9710   88.9088    8.1553 C.2     1  UNL1        0.1203
      2 C          60.0074   87.5708    7.4781 C.2     1  UNL1        0.0299
      3 C          60.7269   86.4233    8.1228 C.2     1  UNL1       -0.0018
      4 C          60.7634   85.0853    7.4457 C.3     1  UNL1        0.0327
      5 C          61.4100   86.6138    9.4447 C.ar    1  UNL1        0.0754
      6 N          62.1295   85.4663   10.0893 N.ar    1  UNL1       -0.2257
      7 C          62.8126   85.6568   11.4111 C.ar    1  UNL1        0.1846
      8 N          63.5940   84.7178   12.2816 N.2     1  UNL1       -0.1288
      9 N          64.0404   85.4755   13.4968 N.2     1  UNL1       -0.1508
     10 C          63.5350   86.8828   13.3773 C.2     1  UNL1        0.0837
     11 C          63.7506   87.9845   14.3721 C.3     1  UNL1        0.0541
     12 C          62.7761   86.9948   12.0882 C.ar    1  UNL1        0.0512
     13 C          62.0566   88.1422   11.4436 C.ar    1  UNL1        0.0120
     14 C          61.3736   87.9517   10.1218 C.ar    1  UNL1        0.0016
     15 C          60.6540   89.0993    9.4771 C.3     1  UNL1        0.0914
     16 C          62.0201   89.4802   12.1207 C.3     1  UNL1        0.1724
     17 O          60.8758   89.8326   13.0243 O.3     1  UNL1       -0.3742
     18 H          60.2520   89.0906   13.0605 H       1  UNL1        0.2113
     19 C          63.1279   90.4659   11.8942 C.ar    1  UNL1        0.0899
     20 C          63.3484   91.0456   10.5284 C.ar    1  UNL1        0.0175
     21 C          64.4563   92.0312   10.3020 C.ar    1  UNL1        0.0029
     22 C          65.3435   92.4371   11.4413 C.ar    1  UNL1        0.0207
     23 C          65.1230   91.8574   12.8071 C.ar    1  UNL1        0.0986
     24 N          64.0152   90.8717   13.0336 N.ar    1  UNL1       -0.2454
     25 C          59.0305   90.0645    6.0270 C.3     1  UNL1        0.2520
     26 O          59.2515   90.0562    7.5107 O.2     1  UNL1       -0.4754
@<TRIPOS>BOND
     1    25    26    1
     2    26     1    1
     3     1     2    2
     4     2     3    1
     5     3     4    1
     6     3     5    2
     7     5     6   ar
     8     6     7   ar
     9     7     8    1
    10     8     9    2
    11     9    10    1
    12    10    11    1
    13    10    12    2
    14    12    13   ar
    15    13    16    1
    16    16    17    1
    17    16    19    1
    18    19    20   ar
    19    20    21   ar
    20    21    22   ar
    21    22    23   ar
    22    23    24   ar
    23    13    14   ar
    24    14    15    1
    25    15     1    1
    26    14     5   ar
    27    12     7   ar
    28    24    19   ar
    29    17    18    1
@<TRIPOS>MOLECULE
*****
 26 29 0 0 0
SMALL
GASTEIGER

@<TRIPOS>ATOM
      1 C          59.9452   92.8623    2.3312 C.2     1  UNL1        0.1203
      2 C          61.3944   92.6036    2.6193 C.2     1  UNL1        0.0299
      3 C          62.4290   92.8816    1.5694 C.2     1  UNL1       -0.0018
      4 C          63.8782   92.6230    1.8575 C.3     1  UNL1        0.0327
      5 C          62.0145   93.4184    0.2314 C.ar    1  UNL1        0.0754
      6 N          63.0492   93.6964   -0.8185 N.ar    1  UNL1       -0.2257
      7 C          62.6346   94.2331   -2.1564 C.ar    1  UNL1        0.1846
      8 N          63.4230   94.6005   -3.3785 N.2     1  UNL1       -0.1288
      9 N          62.4610   95.0863   -4.4218 N.2     1  UNL1       -0.1508
     10 C          61.0781   95.0191   -3.8446 C.2     1  UNL1        0.0837
     11 C          59.8105   95.4105   -4.5446 C.3     1  UNL1        0.0541
     12 C          61.1854   94.4918   -2.4444 C.ar    1  UNL1        0.0512
     13 C          60.1508   94.2138   -1.3946 C.ar    1  UNL1        0.0120
     14 C          60.5654   93.6771   -0.0566 C.ar    1  UNL1        0.0016
     15 C          59.5307   93.3990    0.9932 C.3     1  UNL1        0.0914
     16 C          58.7016   94.4725   -1.6826 C.3     1  UNL1        0.1724
     17 O          58.1216   95.8355   -1.4460 O.3     1  UNL1       -0.3742
     18 H          58.8126   96.4269   -1.1089 H       1  UNL1        0.2113
     19 C          57.8325   93.3682   -2.2072 C.ar    1  UNL1        0.0899
     20 C          58.2051   92.6585   -3.4751 C.ar    1  UNL1        0.0175
     21 C          57.3359   91.5542   -3.9997 C.ar    1  UNL1        0.0029
     22 C          56.0942   91.1598   -3.2565 C.ar    1  UNL1        0.0207
     23 C          55.7216   91.8696   -1.9886 C.ar    1  UNL1        0.0986
     24 N          56.5907   92.9738   -1.4640 N.ar    1  UNL1       -0.2454
     25 C          59.3140   91.9637    4.6858 C.3     1  UNL1        0.2520
     26 O          58.9106   92.5843    3.3810 O.2     1  UNL1       -0.4754
@<TRIPOS>BOND
     1    25    26    1
     2    26     1    1
     3     1     2    2
     4     2     3    1
     5     3     4    1
     6     3     5    2
     7     5     6   ar
     8     6     7   ar
     9     7     8    1
    10     8     9    2
    11     9    10    1
    12    10    11    1
    13    10    12    2
    14    12    13   ar
    15    13    16    1
    16    16    17    1
    17    16    19    1
    18    19    20   ar
    19    20    21   ar
    20    21    22   ar
    21    22    23   ar
    22    23    24   ar
    23    13    14   ar
    24    14    15    1
    25    15     1    1
    26    14     5   ar
    27    12     7   ar
    28    24    19   ar
    29    17    18    1
@<TRIPOS>MOLECULE
*****
 26 29 0 0 0
SMALL
GASTEIGER

@<TRIPOS>ATOM
      1 C          60.6845   86.8335    9.3896 C.2     1  UNL1        0.1203
      2 C          60.9559   88.2805    9.1024 C.2     1  UNL1        0.0299
      3 C          61.8265   89.0782   10.0275 C.2     1  UNL1       -0.0018
      4 C          62.0980   90.5252    9.7403 C.3     1  UNL1        0.0327
      5 C          62.4255   88.4289   11.2398 C.ar    1  UNL1        0.0754
      6 N          63.2960   89.2267   12.1650 N.ar    1  UNL1       -0.2257
      7 C          63.8950   88.5774   13.3772 C.ar    1  UNL1        0.1846
      8 N          64.7858   89.1061   14.4621 N.2     1  UNL1       -0.1288
      9 N          65.0648   87.9859   15.4198 N.2     1  UNL1       -0.1508
     10 C          64.3464   86.7648   14.9268 C.2     1  UNL1        0.0837
     11 C          64.3504   85.4152   15.5813 C.3     1  UNL1        0.0541
     12 C          63.6234   87.1304   13.6644 C.ar    1  UNL1        0.0512
     13 C          62.7529   86.3327   12.7393 C.ar    1  UNL1        0.0120
     14 C          62.1540   86.9820   11.5270 C.ar    1  UNL1        0.0016
     15 C          61.2834   86.1842   10.6019 C.3     1  UNL1        0.0914
     16 C          62.4814   84.8857   13.0265 C.3     1  UNL1        0.1724
     17 O          61.7169   84.4958   14.2568 O.3     1  UNL1       -0.3742
     18 H          61.4742   85.2933   14.7529 H       1  UNL1        0.2113
     19 C          62.9743   83.8286   12.0833 C.ar    1  UNL1        0.0899
     20 C          63.9385   84.1877   10.9919 C.ar    1  UNL1        0.0175
     21 C          64.4314   83.1305   10.0488 C.ar    1  UNL1        0.0029
     22 C          63.9600   81.7143   10.1971 C.ar    1  UNL1        0.0207
     23 C          62.9957   81.3552   11.2885 C.ar    1  UNL1        0.0986
     24 N          62.5028   82.4123   12.2317 N.ar    1  UNL1       -0.2454
     25 C          58.8921   86.7369    7.5112 C.3     1  UNL1        0.2520
     26 O          59.8140   86.0357    8.4645 O.2     1  UNL1       -0.4754
@<TRIPOS>BOND
     1    25    26    1
     2    26     1    1
     3     1     2    2
     4     2     3    1
     5     3     4    1
     6     3     5    2
     7     5     6   ar
     8     6     7   ar
     9     7     8    1
    10     8     9    2
    11     9    10    1
    12    10    11    1
    13    10    12    2
    14    12    13   ar
    15    13    16    1
    16    16    17    1
    17    16    19    1
    18    19    20   ar
    19    20    21   ar
    20    21    22   ar
    21    22    23   ar
    22    23    24   ar
    23    13    14   ar
    24    14    15    1
    25    15     1    1
    26    14     5   ar
    27    12     7   ar
    28    24    19   ar
    29    17    18    1
