@<TRIPOS>MOLECULE
*****
 32 35 0 0 0
SMALL
GASTEIGER

@<TRIPOS>ATOM
      1 N          62.5449   85.9597    9.0443 N.am    1  UNL1       -0.2683
      2 C          62.4613   85.1257   10.2883 C.2     1  UNL1        0.3047
      3 O          61.3293   85.3272   11.2516 O.2     1  UNL1       -0.2525
      4 N          63.5096   84.0903   10.5690 N.am    1  UNL1       -0.2863
      5 H          63.2878   85.8275    8.4120 H       1  UNL1        0.1564
      6 H          64.2526   83.9581    9.9367 H       1  UNL1        0.1512
      7 C          63.3672   89.9341   12.6189 C.3     1  UNL1        0.0521
      8 C          62.3753   89.7171   11.5147 C.ar    1  UNL1        0.0594
      9 C          62.4318   88.4647   10.6913 C.ar    1  UNL1        0.0160
     10 C          61.4400   88.2477    9.5871 C.ar    1  UNL1        0.0162
     11 C          61.4965   86.9951    8.7636 C.ar    1  UNL1        0.0516
     12 C          60.5047   86.7781    7.6595 C.ar    1  UNL1        0.0147
     13 C          59.4563   87.8136    7.3788 C.ar    1  UNL1        0.0013
     14 C          59.3998   89.0661    8.2023 C.ar    1  UNL1        0.0016
     15 C          60.3916   89.2831    9.3064 C.ar    1  UNL1        0.0204
     16 C          60.3351   90.5355   10.1299 C.ar    1  UNL1        0.0984
     17 N          61.3270   90.7525   11.2341 N.ar    1  UNL1       -0.2481
     18 C          63.4260   83.2564   11.8130 C.3     1  UNL1        0.1022
     19 C          63.1077   81.7938   11.7155 C.3     1  UNL1        0.0700
     20 C          63.0241   80.9599   12.9595 C.3     1  UNL1        0.2000
     21 O          63.2587   81.5886   14.3010 O.3     1  UNL1       -0.4772
     22 C          63.5769   83.0512   14.3985 C.ar    1  UNL1        0.1361
     23 C          63.8115   83.6799   15.7400 C.ar    1  UNL1        0.0389
     24 C          64.1297   85.1425   15.8376 C.ar    1  UNL1        0.0327
     25 C          64.2134   85.9764   14.5936 C.ar    1  UNL1        0.1401
     26 F          64.5316   87.4390   14.6911 F       1  UNL1       -0.2042
     27 C          63.9788   85.3477   13.2521 C.ar    1  UNL1        0.0300
     28 C          63.6605   83.8851   13.1546 C.ar    1  UNL1        0.0319
     29 C          62.8363   79.7633   13.8443 C.3     1  UNL1        0.2357
     30 F          61.5339   79.0192   13.8332 F       1  UNL1       -0.2303
     31 C          62.7243   79.9156   11.9253 C.3     1  UNL1        0.2357
     32 F          62.8034   80.2595   10.4674 F       1  UNL1       -0.2303
@<TRIPOS>BOND
     1     7     8    1
     2     8     9   ar
     3     9    10   ar
     4    10    11   ar
     5    11     1    1
     6     1     2   am
     7     2     3    2
     8     2     4   am
     9    18     4    1
    10    18    19    1
    11    19    20    1
    12    20    29    1
    13    29    30    1
    14    20    31    1
    15    31    32    1
    16    20    21    1
    17    21    22    1
    18    22    23   ar
    19    23    24   ar
    20    24    25   ar
    21    25    26    1
    22    25    27   ar
    23    27    28   ar
    24    11    12   ar
    25    12    13   ar
    26    13    14   ar
    27    14    15   ar
    28    15    16   ar
    29    16    17   ar
    30    17     8   ar
    31    15    10   ar
    32    28    18    1
    33    28    22   ar
    34     1     5    1
    35     4     6    1
@<TRIPOS>MOLECULE
*****
 32 35 0 0 0
SMALL
GASTEIGER

@<TRIPOS>ATOM
      1 N          62.7849   90.8876   13.2910 N.am    1  UNL1       -0.2683
      2 C          62.8377   89.5047   12.7120 C.2     1  UNL1        0.3047
      3 O          63.9658   88.5838   13.0714 O.2     1  UNL1       -0.2525
      4 N          61.7623   89.0429   11.7738 N.am    1  UNL1       -0.2863
      5 H          62.0444   91.4920   13.0551 H       1  UNL1        0.1564
      6 H          61.0219   89.6474   11.5379 H       1  UNL1        0.1512
      7 C          66.8210   92.6912   10.1755 C.3     1  UNL1        0.0521
      8 C          66.6185   92.5867   11.6580 C.ar    1  UNL1        0.0594
      9 C          65.3406   92.0203   12.2024 C.ar    1  UNL1        0.0160
     10 C          65.1381   91.9157   13.6849 C.ar    1  UNL1        0.0162
     11 C          63.8602   91.3494   14.2293 C.ar    1  UNL1        0.0516
     12 C          63.6577   91.2448   15.7118 C.ar    1  UNL1        0.0147
     13 C          64.7331   91.7066   16.6501 C.ar    1  UNL1        0.0013
     14 C          66.0109   92.2730   16.1058 C.ar    1  UNL1        0.0016
     15 C          66.2134   92.3775   14.6232 C.ar    1  UNL1        0.0204
     16 C          67.4913   92.9439   14.0789 C.ar    1  UNL1        0.0984
     17 N          67.6938   93.0485   12.5963 N.ar    1  UNL1       -0.2481
     18 C          61.8152   87.6602   11.1949 C.3     1  UNL1        0.1022
     19 C          62.5438   86.5697   11.9228 C.3     1  UNL1        0.0700
     20 C          62.5966   85.1869   11.3438 C.3     1  UNL1        0.2000
     21 O          61.9208   84.8947   10.0370 O.3     1  UNL1       -0.4772
     22 C          61.1922   85.9852    9.3091 C.ar    1  UNL1        0.1361
     23 C          60.5164   85.6929    8.0022 C.ar    1  UNL1        0.0389
     24 C          59.7878   86.7835    7.2743 C.ar    1  UNL1        0.0327
     25 C          59.7349   88.1662    7.8532 C.ar    1  UNL1        0.1401
     26 F          59.0063   89.2567    7.1253 F       1  UNL1       -0.2042
     27 C          60.4107   88.4584    9.1600 C.ar    1  UNL1        0.0300
     28 C          61.1393   87.3679    9.8880 C.ar    1  UNL1        0.0319
     29 C          62.9236   83.7299   11.2017 C.3     1  UNL1        0.2357
     30 F          63.6183   83.2340    9.9683 F       1  UNL1       -0.2303
     31 C          63.3860   84.9731   12.6013 C.3     1  UNL1        0.2357
     32 F          64.5589   84.0380   12.6007 F       1  UNL1       -0.2303
@<TRIPOS>BOND
     1     7     8    1
     2     8     9   ar
     3     9    10   ar
     4    10    11   ar
     5    11     1    1
     6     1     2   am
     7     2     3    2
     8     2     4   am
     9    18     4    1
    10    18    19    1
    11    19    20    1
    12    20    29    1
    13    29    30    1
    14    20    31    1
    15    31    32    1
    16    20    21    1
    17    21    22    1
    18    22    23   ar
    19    23    24   ar
    20    24    25   ar
    21    25    26    1
    22    25    27   ar
    23    27    28   ar
    24    11    12   ar
    25    12    13   ar
    26    13    14   ar
    27    14    15   ar
    28    15    16   ar
    29    16    17   ar
    30    17     8   ar
    31    15    10   ar
    32    28    18    1
    33    28    22   ar
    34     1     5    1
    35     4     6    1
@<TRIPOS>MOLECULE
*****
 32 35 0 0 0
SMALL
GASTEIGER

@<TRIPOS>ATOM
      1 N          62.3656   85.7288    9.1079 N.am    1  UNL1       -0.2683
      2 C          62.4191   85.2696   10.5349 C.2     1  UNL1        0.3047
      3 O          61.3852   85.7415   11.5139 O.2     1  UNL1       -0.2525
      4 N          63.5065   84.3386   10.9829 N.am    1  UNL1       -0.2863
      5 H          63.0442   85.4190    8.4653 H       1  UNL1        0.1564
      6 H          64.1851   84.0288   10.3404 H       1  UNL1        0.1512
      7 C          63.0454   90.2950   11.9252 C.3     1  UNL1        0.0521
      8 C          62.0599   89.8517   10.8849 C.ar    1  UNL1        0.0594
      9 C          62.1618   88.4774   10.2925 C.ar    1  UNL1        0.0160
     10 C          61.1763   88.0342    9.2522 C.ar    1  UNL1        0.0162
     11 C          61.2782   86.6598    8.6598 C.ar    1  UNL1        0.0516
     12 C          60.2928   86.2165    7.6195 C.ar    1  UNL1        0.0147
     13 C          59.2053   87.1477    7.1715 C.ar    1  UNL1        0.0013
     14 C          59.1035   88.5220    7.7638 C.ar    1  UNL1        0.0016
     15 C          60.0890   88.9652    8.8042 C.ar    1  UNL1        0.0204
     16 C          59.9871   90.3395    9.3965 C.ar    1  UNL1        0.0984
     17 N          60.9726   90.7827   10.4369 N.ar    1  UNL1       -0.2481
     18 C          63.5600   83.8795   12.4099 C.3     1  UNL1        0.1022
     19 C          63.8569   84.8624   13.5034 C.3     1  UNL1        0.0700
     20 C          63.9104   84.4032   14.9304 C.3     1  UNL1        0.2000
     21 O          63.6669   82.9612   15.2639 O.3     1  UNL1       -0.4772
     22 C          63.3700   81.9783   14.1704 C.ar    1  UNL1        0.1361
     23 C          63.1265   80.5363   14.5039 C.ar    1  UNL1        0.0389
     24 C          62.8296   79.5533   13.4104 C.ar    1  UNL1        0.0327
     25 C          62.7761   80.0124   11.9835 C.ar    1  UNL1        0.1401
     26 F          62.4792   79.0295   10.8900 F       1  UNL1       -0.2042
     27 C          63.0196   81.4545   11.6500 C.ar    1  UNL1        0.0300
     28 C          63.3165   82.4374   12.7435 C.ar    1  UNL1        0.0319
     29 C          64.0674   84.4507   16.4214 C.3     1  UNL1        0.2357
     30 F          63.7594   85.7146   17.1682 F       1  UNL1       -0.2303
     31 C          64.2084   85.8617   15.1148 C.3     1  UNL1        0.2357
     32 F          64.1632   86.7910   13.9381 F       1  UNL1       -0.2303
@<TRIPOS>BOND
     1     7     8    1
     2     8     9   ar
     3     9    10   ar
     4    10    11   ar
     5    11     1    1
     6     1     2   am
     7     2     3    2
     8     2     4   am
     9    18     4    1
    10    18    19    1
    11    19    20    1
    12    20    29    1
    13    29    30    1
    14    20    31    1
    15    31    32    1
    16    20    21    1
    17    21    22    1
    18    22    23   ar
    19    23    24   ar
    20    24    25   ar
    21    25    26    1
    22    25    27   ar
    23    27    28   ar
    24    11    12   ar
    25    12    13   ar
    26    13    14   ar
    27    14    15   ar
    28    15    16   ar
    29    16    17   ar
    30    17     8   ar
    31    15    10   ar
    32    28    18    1
    33    28    22   ar
    34     1     5    1
    35     4     6    1
@<TRIPOS>MOLECULE
*****
 32 35 0 0 0
SMALL
GASTEIGER

@<TRIPOS>ATOM
      1 N          63.4504   83.9000   10.5488 N.am    1  UNL1       -0.2683
      2 C          62.5330   85.0778   10.4028 C.2     1  UNL1        0.3047
      3 O          61.4575   85.3213   11.4196 O.2     1  UNL1       -0.2525
      4 N          62.6911   86.0120    9.2399 N.am    1  UNL1       -0.2863
      5 H          64.1563   83.7401    9.8814 H       1  UNL1        0.1564
      6 H          63.3970   85.8521    8.5725 H       1  UNL1        0.1512
      7 C          64.4547   86.8356   14.9786 C.3     1  UNL1        0.0521
      8 C          64.0850   85.4011   14.7433 C.ar    1  UNL1        0.0594
      9 C          63.8735   84.9007   13.3452 C.ar    1  UNL1        0.0160
     10 C          63.5038   83.4661   13.1099 C.ar    1  UNL1        0.0162
     11 C          63.2922   82.9658   11.7116 C.ar    1  UNL1        0.0516
     12 C          62.9225   81.5312   11.4763 C.ar    1  UNL1        0.0147
     13 C          62.7644   80.5970   12.6392 C.ar    1  UNL1        0.0013
     14 C          62.9759   81.0974   14.0374 C.ar    1  UNL1        0.0016
     15 C          63.3456   82.5320   14.2727 C.ar    1  UNL1        0.0204
     16 C          63.5572   83.0323   15.6708 C.ar    1  UNL1        0.0984
     17 N          63.9269   84.4669   15.9061 N.ar    1  UNL1       -0.2481
     18 C          61.7738   87.1897    9.0939 C.3     1  UNL1        0.1022
     19 C          60.7227   87.1936    8.0238 C.3     1  UNL1        0.0700
     20 C          59.8053   88.3714    7.8778 C.3     1  UNL1        0.2000
     21 O          59.9391   89.5453    8.8020 O.3     1  UNL1       -0.4772
     22 C          60.9901   89.5414    9.8721 C.ar    1  UNL1        0.1361
     23 C          61.1239   90.7153   10.7963 C.ar    1  UNL1        0.0389
     24 C          62.1750   90.7114   11.8664 C.ar    1  UNL1        0.0327
     25 C          63.0923   89.5337   12.0124 C.ar    1  UNL1        0.1401
     26 F          64.1434   89.5298   13.0825 F       1  UNL1       -0.2042
     27 C          62.9586   88.3598   11.0883 C.ar    1  UNL1        0.0300
     28 C          61.9075   88.3637   10.0181 C.ar    1  UNL1        0.0319
     29 C          58.7093   89.2470    7.3468 C.3     1  UNL1        0.2357
     30 F          58.8349   89.8632    5.9851 F       1  UNL1       -0.2303
     31 C          59.2909   87.5016    6.7692 C.3     1  UNL1        0.2357
     32 F          59.0727   86.0365    7.0053 F       1  UNL1       -0.2303
@<TRIPOS>BOND
     1     7     8    1
     2     8     9   ar
     3     9    10   ar
     4    10    11   ar
     5    11     1    1
     6     1     2   am
     7     2     3    2
     8     2     4   am
     9    18     4    1
    10    18    19    1
    11    19    20    1
    12    20    29    1
    13    29    30    1
    14    20    31    1
    15    31    32    1
    16    20    21    1
    17    21    22    1
    18    22    23   ar
    19    23    24   ar
    20    24    25   ar
    21    25    26    1
    22    25    27   ar
    23    27    28   ar
    24    11    12   ar
    25    12    13   ar
    26    13    14   ar
    27    14    15   ar
    28    15    16   ar
    29    16    17   ar
    30    17     8   ar
    31    15    10   ar
    32    28    18    1
    33    28    22   ar
    34     1     5    1
    35     4     6    1
@<TRIPOS>MOLECULE
*****
 32 35 0 0 0
SMALL
GASTEIGER

@<TRIPOS>ATOM
      1 N          63.3307   89.5995   13.2910 N.am    1  UNL1       -0.2683
      2 C          63.5334   88.1199   13.4320 C.2     1  UNL1        0.3047
      3 O          64.3923   87.5826   14.5381 O.2     1  UNL1       -0.2525
      4 N          62.8772   87.1777   12.4669 N.am    1  UNL1       -0.2863
      5 H          62.7670   89.9522   12.5650 H       1  UNL1        0.1564
      6 H          62.3134   87.5304   11.7409 H       1  UNL1        0.1512
      7 C          66.7117   92.6361   10.3588 C.3     1  UNL1        0.0521
      8 C          66.3587   92.5836   11.8157 C.ar    1  UNL1        0.0594
      9 C          65.3494   91.5889   12.3075 C.ar    1  UNL1        0.0160
     10 C          64.9963   91.5365   13.7644 C.ar    1  UNL1        0.0162
     11 C          63.9870   90.5417   14.2562 C.ar    1  UNL1        0.0516
     12 C          63.6339   90.4893   15.7131 C.ar    1  UNL1        0.0147
     13 C          64.2902   91.4316   16.6782 C.ar    1  UNL1        0.0013
     14 C          65.2995   92.4262   16.1864 C.ar    1  UNL1        0.0016
     15 C          65.6526   92.4787   14.7295 C.ar    1  UNL1        0.0204
     16 C          66.6619   93.4734   14.2377 C.ar    1  UNL1        0.0984
     17 N          67.0149   93.5258   12.7808 N.ar    1  UNL1       -0.2481
     18 C          63.0798   85.6982   12.6079 C.3     1  UNL1        0.1022
     19 C          63.1550   85.0781   13.9716 C.3     1  UNL1        0.0700
     20 C          63.3577   83.5985   14.1126 C.3     1  UNL1        0.2000
     21 O          63.4853   82.7391   12.8898 O.3     1  UNL1       -0.4772
     22 C          63.4101   83.3592   11.5261 C.ar    1  UNL1        0.1361
     23 C          63.5376   82.4999   10.3033 C.ar    1  UNL1        0.0389
     24 C          63.4624   83.1200    8.9396 C.ar    1  UNL1        0.0327
     25 C          63.2597   84.5995    8.7986 C.ar    1  UNL1        0.1401
     26 F          63.1845   85.2196    7.4348 F       1  UNL1       -0.2042
     27 C          63.1322   85.4589   10.0213 C.ar    1  UNL1        0.0300
     28 C          63.2074   84.8387   11.3851 C.ar    1  UNL1        0.0319
     29 C          63.5379   82.2555   14.7559 C.3     1  UNL1        0.2357
     30 F          64.0082   81.0892   13.9383 F       1  UNL1       -0.2303
     31 C          63.2928   83.9915   15.5588 C.3     1  UNL1        0.2357
     32 F          62.1695   84.8548   16.0516 F       1  UNL1       -0.2303
@<TRIPOS>BOND
     1     7     8    1
     2     8     9   ar
     3     9    10   ar
     4    10    11   ar
     5    11     1    1
     6     1     2   am
     7     2     3    2
     8     2     4   am
     9    18     4    1
    10    18    19    1
    11    19    20    1
    12    20    29    1
    13    29    30    1
    14    20    31    1
    15    31    32    1
    16    20    21    1
    17    21    22    1
    18    22    23   ar
    19    23    24   ar
    20    24    25   ar
    21    25    26    1
    22    25    27   ar
    23    27    28   ar
    24    11    12   ar
    25    12    13   ar
    26    13    14   ar
    27    14    15   ar
    28    15    16   ar
    29    16    17   ar
    30    17     8   ar
    31    15    10   ar
    32    28    18    1
    33    28    22   ar
    34     1     5    1
    35     4     6    1
@<TRIPOS>MOLECULE
*****
 32 35 0 0 0
SMALL
GASTEIGER

@<TRIPOS>ATOM
      1 N          62.9817   86.6820   15.1261 N.am    1  UNL1       -0.2683
      2 C          63.7252   87.8473   14.5435 C.2     1  UNL1        0.3047
      3 O          64.8339   87.6140   13.5606 O.2     1  UNL1       -0.2525
      4 N          63.3599   89.2460   14.9439 N.am    1  UNL1       -0.2863
      5 H          62.2540   86.8351   15.7713 H       1  UNL1        0.1564
      6 H          62.6322   89.3991   15.5891 H       1  UNL1        0.1512
      7 C          61.8024   86.2717    9.8639 C.3     1  UNL1        0.0521
      8 C          62.3713   85.3253   10.8792 C.ar    1  UNL1        0.0594
      9 C          62.5748   85.7775   12.2948 C.ar    1  UNL1        0.0160
     10 C          63.1436   84.8311   13.3101 C.ar    1  UNL1        0.0162
     11 C          63.3471   85.2834   14.7258 C.ar    1  UNL1        0.0516
     12 C          63.9159   84.3369   15.7410 C.ar    1  UNL1        0.0147
     13 C          64.2812   82.9382   15.3406 C.ar    1  UNL1        0.0013
     14 C          64.0777   82.4861   13.9249 C.ar    1  UNL1        0.0016
     15 C          63.5089   83.4325   12.9097 C.ar    1  UNL1        0.0204
     16 C          63.3054   82.9803   11.4940 C.ar    1  UNL1        0.0984
     17 N          62.7366   83.9267   10.4788 N.ar    1  UNL1       -0.2481
     18 C          64.1033   90.4112   14.3613 C.3     1  UNL1        0.1022
     19 C          65.0408   91.2077   15.2197 C.3     1  UNL1        0.0700
     20 C          65.7842   92.3730   14.6370 C.3     1  UNL1        0.2000
     21 O          65.5902   92.7418   13.1961 O.3     1  UNL1       -0.4772
     22 C          64.6527   91.9453   12.3378 C.ar    1  UNL1        0.1361
     23 C          64.4586   92.3141   10.8969 C.ar    1  UNL1        0.0389
     24 C          63.5211   91.5176   10.0385 C.ar    1  UNL1        0.0327
     25 C          62.7777   90.3524   10.6211 C.ar    1  UNL1        0.1401
     26 F          61.8402   89.5559    9.7628 F       1  UNL1       -0.2042
     27 C          62.9717   89.9836   12.0620 C.ar    1  UNL1        0.0300
     28 C          63.9092   90.7800   12.9204 C.ar    1  UNL1        0.0319
     29 C          66.7063   93.5524   14.5437 C.3     1  UNL1        0.2357
     30 F          66.4400   94.6351   13.5403 F       1  UNL1       -0.2303
     31 C          66.2985   92.4138   16.0455 C.3     1  UNL1        0.2357
     32 F          67.4981   93.2492   16.3820 F       1  UNL1       -0.2303
@<TRIPOS>BOND
     1     7     8    1
     2     8     9   ar
     3     9    10   ar
     4    10    11   ar
     5    11     1    1
     6     1     2   am
     7     2     3    2
     8     2     4   am
     9    18     4    1
    10    18    19    1
    11    19    20    1
    12    20    29    1
    13    29    30    1
    14    20    31    1
    15    31    32    1
    16    20    21    1
    17    21    22    1
    18    22    23   ar
    19    23    24   ar
    20    24    25   ar
    21    25    26    1
    22    25    27   ar
    23    27    28   ar
    24    11    12   ar
    25    12    13   ar
    26    13    14   ar
    27    14    15   ar
    28    15    16   ar
    29    16    17   ar
    30    17     8   ar
    31    15    10   ar
    32    28    18    1
    33    28    22   ar
    34     1     5    1
    35     4     6    1
@<TRIPOS>MOLECULE
*****
 32 35 0 0 0
SMALL
GASTEIGER

@<TRIPOS>ATOM
      1 N          63.1221   91.2089   12.3416 N.am    1  UNL1       -0.2683
      2 C          62.8069   90.0457   11.4485 C.2     1  UNL1        0.3047
      3 O          63.7307   89.6947   10.3200 O.2     1  UNL1       -0.2525
      4 N          61.5680   89.2335   11.6839 N.am    1  UNL1       -0.2863
      5 H          62.5158   91.4393   13.0823 H       1  UNL1        0.1564
      6 H          60.9617   89.4639   12.4245 H       1  UNL1        0.1512
      7 C          65.3068   92.0590   17.2155 C.3     1  UNL1        0.0521
      8 C          65.6898   92.4556   15.8205 C.ar    1  UNL1        0.0594
      9 C          64.8339   92.0401   14.6609 C.ar    1  UNL1        0.0160
     10 C          65.2170   92.4367   13.2659 C.ar    1  UNL1        0.0162
     11 C          64.3610   92.0211   12.1062 C.ar    1  UNL1        0.0516
     12 C          64.7441   92.4177   10.7113 C.ar    1  UNL1        0.0147
     13 C          65.9830   93.2299   10.4759 C.ar    1  UNL1        0.0013
     14 C          66.8389   93.6454   11.6355 C.ar    1  UNL1        0.0016
     15 C          66.4559   93.2488   13.0305 C.ar    1  UNL1        0.0204
     16 C          67.3118   93.6644   14.1901 C.ar    1  UNL1        0.0984
     17 N          66.9287   93.2678   15.5851 N.ar    1  UNL1       -0.2481
     18 C          61.2529   88.0703   10.7908 C.3     1  UNL1        0.1022
     19 C          60.3401   88.2535    9.6146 C.3     1  UNL1        0.0700
     20 C          60.0250   87.0903    8.7215 C.3     1  UNL1        0.2000
     21 O          60.6226   85.7439    9.0045 O.3     1  UNL1       -0.4772
     22 C          61.5353   85.5607   10.1807 C.ar    1  UNL1        0.1361
     23 C          62.1329   84.2144   10.4637 C.ar    1  UNL1        0.0389
     24 C          63.0457   84.0312   11.6399 C.ar    1  UNL1        0.0327
     25 C          63.3608   85.1944   12.5330 C.ar    1  UNL1        0.1401
     26 F          64.2736   85.0112   13.7091 F       1  UNL1       -0.2042
     27 C          62.7632   86.5407   12.2499 C.ar    1  UNL1        0.0300
     28 C          61.8505   86.7239   11.0738 C.ar    1  UNL1        0.0319
     29 C          59.4306   86.2993    7.5941 C.3     1  UNL1        0.2357
     30 F          60.2091   85.1781    6.9723 F       1  UNL1       -0.2303
     31 C          59.2209   88.1620    8.0469 C.3     1  UNL1        0.2357
     32 F          59.8600   89.4747    7.7031 F       1  UNL1       -0.2303
@<TRIPOS>BOND
     1     7     8    1
     2     8     9   ar
     3     9    10   ar
     4    10    11   ar
     5    11     1    1
     6     1     2   am
     7     2     3    2
     8     2     4   am
     9    18     4    1
    10    18    19    1
    11    19    20    1
    12    20    29    1
    13    29    30    1
    14    20    31    1
    15    31    32    1
    16    20    21    1
    17    21    22    1
    18    22    23   ar
    19    23    24   ar
    20    24    25   ar
    21    25    26    1
    22    25    27   ar
    23    27    28   ar
    24    11    12   ar
    25    12    13   ar
    26    13    14   ar
    27    14    15   ar
    28    15    16   ar
    29    16    17   ar
    30    17     8   ar
    31    15    10   ar
    32    28    18    1
    33    28    22   ar
    34     1     5    1
    35     4     6    1
@<TRIPOS>MOLECULE
*****
 32 35 0 0 0
SMALL
GASTEIGER

@<TRIPOS>ATOM
      1 N          62.9382   89.5563   13.1301 N.am    1  UNL1       -0.2683
      2 C          63.2566   88.0939   13.0298 C.2     1  UNL1        0.3047
      3 O          64.3072   87.4926   13.9155 O.2     1  UNL1       -0.2525
      4 N          62.5243   87.2329   12.0437 N.am    1  UNL1       -0.2863
      5 H          62.2486   89.9510   12.5488 H       1  UNL1        0.1564
      6 H          61.8347   87.6275   11.4624 H       1  UNL1        0.1512
      7 C          66.1913   92.7434   10.2130 C.3     1  UNL1        0.0521
      8 C          65.9272   92.5924   11.6818 C.ar    1  UNL1        0.0594
      9 C          64.9309   91.5804   12.1646 C.ar    1  UNL1        0.0160
     10 C          64.6668   91.4295   13.6334 C.ar    1  UNL1        0.0162
     11 C          63.6704   90.4174   14.1162 C.ar    1  UNL1        0.0516
     12 C          63.4063   90.2664   15.5850 C.ar    1  UNL1        0.0147
     13 C          64.1386   91.1276   16.5711 C.ar    1  UNL1        0.0013
     14 C          65.1350   92.1396   16.0883 C.ar    1  UNL1        0.0016
     15 C          65.3991   92.2905   14.6195 C.ar    1  UNL1        0.0204
     16 C          66.3954   93.3025   14.1367 C.ar    1  UNL1        0.0984
     17 N          66.6595   93.4535   12.6679 N.ar    1  UNL1       -0.2481
     18 C          62.8427   85.7705   11.9434 C.3     1  UNL1        0.1022
     19 C          63.1813   85.1662   10.6130 C.3     1  UNL1        0.0700
     20 C          63.4997   83.7037   10.5127 C.3     1  UNL1        0.2000
     21 O          63.4796   82.8457   11.7429 O.3     1  UNL1       -0.4772
     22 C          63.1410   83.4501   13.0733 C.ar    1  UNL1        0.1361
     23 C          63.1209   82.5921   14.3035 C.ar    1  UNL1        0.0389
     24 C          62.7823   83.1964   15.6340 C.ar    1  UNL1        0.0327
     25 C          62.4639   84.6587   15.7343 C.ar    1  UNL1        0.1401
     26 F          62.1253   85.2631   17.0648 F       1  UNL1       -0.2042
     27 C          62.4840   85.5167   14.5041 C.ar    1  UNL1        0.0300
     28 C          62.8226   84.9124   13.1736 C.ar    1  UNL1        0.0319
     29 C          63.8698   82.3797    9.9128 C.3     1  UNL1        0.2357
     30 F          63.1955   81.1266   10.3871 F       1  UNL1       -0.2303
     31 C          63.6484   84.1019    9.0741 C.3     1  UNL1        0.2357
     32 F          63.3540   85.5108    8.6517 F       1  UNL1       -0.2303
@<TRIPOS>BOND
     1     7     8    1
     2     8     9   ar
     3     9    10   ar
     4    10    11   ar
     5    11     1    1
     6     1     2   am
     7     2     3    2
     8     2     4   am
     9    18     4    1
    10    18    19    1
    11    19    20    1
    12    20    29    1
    13    29    30    1
    14    20    31    1
    15    31    32    1
    16    20    21    1
    17    21    22    1
    18    22    23   ar
    19    23    24   ar
    20    24    25   ar
    21    25    26    1
    22    25    27   ar
    23    27    28   ar
    24    11    12   ar
    25    12    13   ar
    26    13    14   ar
    27    14    15   ar
    28    15    16   ar
    29    16    17   ar
    30    17     8   ar
    31    15    10   ar
    32    28    18    1
    33    28    22   ar
    34     1     5    1
    35     4     6    1
@<TRIPOS>MOLECULE
*****
 32 35 0 0 0
SMALL
GASTEIGER

@<TRIPOS>ATOM
      1 N          62.3583   86.8682   11.4025 N.am    1  UNL1       -0.2683
      2 C          63.0784   87.7925   12.3392 C.2     1  UNL1        0.3047
      3 O          64.2273   87.2840   13.1587 O.2     1  UNL1       -0.2525
      4 N          62.6497   89.2251   12.4563 N.am    1  UNL1       -0.2863
      5 H          61.6043   87.2019   10.8646 H       1  UNL1        0.1564
      6 H          61.8956   89.5588   11.9184 H       1  UNL1        0.1512
      7 C          62.2806   84.8639   16.4251 C.3     1  UNL1        0.0521
      8 C          62.6216   84.2905   15.0816 C.ar    1  UNL1        0.0594
      9 C          62.5339   85.1497   13.8553 C.ar    1  UNL1        0.0160
     10 C          62.8749   84.5763   12.5118 C.ar    1  UNL1        0.0162
     11 C          62.7871   85.4356   11.2854 C.ar    1  UNL1        0.0516
     12 C          63.1281   84.8622    9.9419 C.ar    1  UNL1        0.0147
     13 C          63.5569   83.4295    9.8248 C.ar    1  UNL1        0.0013
     14 C          63.6447   82.5703   11.0512 C.ar    1  UNL1        0.0016
     15 C          63.3037   83.1437   12.3947 C.ar    1  UNL1        0.0204
     16 C          63.3914   82.2845   13.6210 C.ar    1  UNL1        0.0984
     17 N          63.0504   82.8579   14.9645 N.ar    1  UNL1       -0.2481
     18 C          63.3697   90.1492   13.3929 C.3     1  UNL1        0.1022
     19 C          63.1847   90.0088   14.8748 C.3     1  UNL1        0.0700
     20 C          63.9049   90.9331   15.8115 C.3     1  UNL1        0.2000
     21 O          64.8100   91.9977   15.2662 O.3     1  UNL1       -0.4772
     22 C          64.9950   92.1381   13.7843 C.ar    1  UNL1        0.1361
     23 C          65.9002   93.2026   13.2390 C.ar    1  UNL1        0.0389
     24 C          66.0852   93.3430   11.7571 C.ar    1  UNL1        0.0327
     25 C          65.3651   92.4188   10.8205 C.ar    1  UNL1        0.1401
     26 F          65.5502   92.5592    9.3386 F       1  UNL1       -0.2042
     27 C          64.4600   91.3543   11.3658 C.ar    1  UNL1        0.0300
     28 C          64.2749   91.2139   12.8477 C.ar    1  UNL1        0.0319
     29 C          64.3662   91.5635   17.0919 C.3     1  UNL1        0.2357
     30 F          65.3771   92.6713   17.0610 F       1  UNL1       -0.2303
     31 C          63.1599   90.0875   16.8015 C.3     1  UNL1        0.2357
     32 F          63.4620   88.6225   16.9138 F       1  UNL1       -0.2303
@<TRIPOS>BOND
     1     7     8    1
     2     8     9   ar
     3     9    10   ar
     4    10    11   ar
     5    11     1    1
     6     1     2   am
     7     2     3    2
     8     2     4   am
     9    18     4    1
    10    18    19    1
    11    19    20    1
    12    20    29    1
    13    29    30    1
    14    20    31    1
    15    31    32    1
    16    20    21    1
    17    21    22    1
    18    22    23   ar
    19    23    24   ar
    20    24    25   ar
    21    25    26    1
    22    25    27   ar
    23    27    28   ar
    24    11    12   ar
    25    12    13   ar
    26    13    14   ar
    27    14    15   ar
    28    15    16   ar
    29    16    17   ar
    30    17     8   ar
    31    15    10   ar
    32    28    18    1
    33    28    22   ar
    34     1     5    1
    35     4     6    1
