@<TRIPOS>MOLECULE
*****
 66 70 0 0 0
SMALL
GASTEIGER

@<TRIPOS>ATOM
      1 C          66.3919   93.9358    9.4773 C.3     1  UNL1        0.1713
      2 C          65.5902   93.0074   10.3405 C.3     1  UNL1        0.0671
      3 C          66.5124   92.9949   11.5236 C.3     1  UNL1        0.0062
      4 C          64.5478   92.0821   10.8951 C.3     1  UNL1        0.1162
      5 O          65.1979   91.8282   12.2229 O.3     1  UNL1       -0.3843
      6 C          63.3359   91.2233   11.1030 C.3     1  UNL1        0.0542
      7 C          63.6694   90.7451   12.4850 C.3     1  UNL1        0.0050
      8 C          62.0367   90.4891   10.9501 C.3     1  UNL1        0.1167
      9 O          62.0312   89.8194   12.2923 O.3     1  UNL1       -0.3840
     10 C          60.7390   89.9299   10.4469 C.3     1  UNL1        0.0490
     11 C          60.3947   89.1141   11.6576 C.3     1  UNL1        0.0072
     12 C          59.5312   89.5837    9.6276 C.2     1  UNL1       -0.0240
     13 C          58.4955   89.4740    8.5480 C.2     1  UNL1       -0.0047
     14 C          57.7027   89.6083    7.2818 C.2     1  UNL1       -0.0001
     15 C          57.2066   89.9775    5.9152 C.2     1  UNL1        0.0318
     16 C          55.9402   89.1742    5.9429 C.3     1  UNL1        0.0358
     17 C          57.0412   90.5565    4.5414 C.2     1  UNL1        0.2456
     18 O          55.7315   89.9042    4.2105 O.2     1  UNL1       -0.2702
     19 N          57.2176   91.3057    3.2539 N.am    1  UNL1       -0.2782
     20 C          58.7653   92.8348    2.1177 C.ar    1  UNL1        0.0893
     21 C          59.7530   92.8908    3.2452 C.ar    1  UNL1        0.0708
     22 C          60.9916   93.7270    3.1163 C.ar    1  UNL1        0.1367
     23 O          61.9794   93.7831    4.2439 O.3     1  UNL1       -0.5054
     24 C          61.2425   94.5072    1.8600 C.ar    1  UNL1        0.0456
     25 C          62.4811   95.3435    1.7312 C.ar    1  UNL1        0.0789
     26 C          62.7319   96.1236    0.4748 C.ar    1  UNL1        0.1445
     27 C          61.7442   96.0676   -0.6527 C.ar    1  UNL1        0.0461
     28 C          61.9950   96.8478   -1.9091 C.3     1  UNL1        0.0374
     29 C          60.5056   95.2314   -0.5237 C.ar    1  UNL1        0.1355
     30 O          59.5178   95.1753   -1.6513 O.3     1  UNL1       -0.5056
     31 C          60.2548   94.4512    0.7325 C.ar    1  UNL1        0.0715
     32 C          59.0161   93.6149    0.8614 C.ar    1  UNL1        0.1500
     33 O          58.0284   93.5589   -0.2661 O.3     1  UNL1       -0.5042
     34 O          64.0319   96.8547    0.6349 O.3     1  UNL1       -0.4429
     35 C          64.5845   96.5263    1.9902 C.3     1  UNL1        0.3263
     36 C          65.7710   96.8374    2.8536 C.3     1  UNL1        0.1003
     37 O          65.6201   96.6360    3.0698 O.2     1  UNL1       -0.4401
     38 C          66.4130   96.5017    4.3360 C.2     1  UNL1        0.1719
     39 C          66.9091   96.1324    5.7026 C.2     1  UNL1        0.0163
     40 C          67.0745   95.5535    7.0764 C.3     1  UNL1        0.0579
     41 C          66.8981   94.8042    8.3639 C.3     1  UNL1        0.0468
     42 C          68.1617   95.2609    9.0309 C.3     1  UNL1        0.0041
     43 C          63.6260   95.5923    2.6677 C.2     1  UNL1        0.2515
     44 O          63.7847   95.0095    4.0407 O.2     1  UNL1       -0.2836
     45 H          66.0312   92.3220   12.2747 H       1  UNL1        0.2103
     46 H          62.8285   90.0726   12.7833 H       1  UNL1        0.2103
     47 H          56.4516   91.1213    2.6635 H       1  UNL1        0.1553
     48 H          61.8227   93.2957    5.0287 H       1  UNL1        0.2922
     49 H          59.6745   95.6627   -2.4361 H       1  UNL1        0.2922
     50 H          58.1851   94.0463   -1.0508 H       1  UNL1        0.2923
     51 C          68.3841   96.2057    7.4073 C.3     1  UNL1        0.1416
     52 O          69.1974   96.8479    6.3228 O.3     1  UNL1       -0.3816
     53 H          69.5067   96.1674    5.7046 H       1  UNL1        0.2105
     54 C          59.5022   92.1107    4.5016 C.2     1  UNL1        0.1217
     55 N          60.2535   90.8377    4.7566 N.2     1  UNL1       -0.1803
     56 N          60.0027   90.0576    6.0129 N.pl3   1  UNL1       -0.2299
     57 C          59.5922   88.6172    5.9320 C.3     1  UNL1        0.1283
     58 C          59.3413   87.8370    7.1884 C.3     1  UNL1        0.0956
     59 N          59.5010   88.4973    8.5257 N.3     1  UNL1       -0.2685
     60 C          59.2501   87.7172    9.7821 C.3     1  UNL1        0.0897
     61 C          59.9115   89.9379    8.6067 C.3     1  UNL1        0.0956
     62 C          60.1623   90.7180    7.3503 C.3     1  UNL1        0.1283
     63 O          67.5232   94.1657   10.4349 O.3     1  UNL1       -0.4522
     64 C          69.2962   92.5311    9.4681 C.3     1  UNL1        0.1212
     65 C          68.5577   93.0998   10.6434 C.2     1  UNL1        0.3174
     66 O          68.8539   92.6025   12.0273 O.2     1  UNL1       -0.2501
@<TRIPOS>BOND
     1    64    65    1
     2    65    66    2
     3    65    63    1
     4     1    63    1
     5     1     2    1
     6     2     3    1
     7     2     4    1
     8     4     5    1
     9     4     6    1
    10     6     7    1
    11     6     8    1
    12     8     9    1
    13     8    10    1
    14    10    11    1
    15    10    12    1
    16    12    13    2
    17    13    14    1
    18    14    15    2
    19    15    16    1
    20    15    17    1
    21    17    18    2
    22    17    19   am
    23    19    20    1
    24    20    21   ar
    25    21    54    1
    26    54    55    2
    27    55    56    1
    28    56    57    1
    29    57    58    1
    30    58    59    1
    31    59    60    1
    32    59    61    1
    33    61    62    1
    34    21    22   ar
    35    22    23    1
    36    22    24   ar
    37    24    25   ar
    38    25    26   ar
    39    26    27   ar
    40    27    28    1
    41    27    29   ar
    42    29    30    1
    43    29    31   ar
    44    31    32   ar
    45    32    33    1
    46    26    34    1
    47    34    35    1
    48    35    36    1
    49    35    37    1
    50    37    38    1
    51    38    39    2
    52    39    40    1
    53    40    51    1
    54    51    52    1
    55    40    41    1
    56    41    42    1
    57    35    43    1
    58    43    44    2
    59    41     1    1
    60    32    20   ar
    61    62    56    1
    62    31    24   ar
    63    43    25    1
    64     5    45    1
    65     9    46    1
    66    19    47    1
    67    23    48    1
    68    30    49    1
    69    33    50    1
    70    52    53    1
@<TRIPOS>MOLECULE
*****
 66 70 0 0 0
SMALL
GASTEIGER

@<TRIPOS>ATOM
      1 C          63.4912   94.8163    3.4637 C.3     1  UNL1        0.1713
      2 C          62.2695   93.9883    3.1958 C.3     1  UNL1        0.0671
      3 C          62.0694   94.3918    1.7649 C.3     1  UNL1        0.0062
      4 C          61.0999   93.0550    3.3013 C.3     1  UNL1        0.1162
      5 O          60.5945   93.2149    1.8980 O.3     1  UNL1       -0.3843
      6 C          60.0623   92.0799    3.7731 C.3     1  UNL1        0.0542
      7 C          59.2861   91.9853    2.4931 C.3     1  UNL1        0.0050
      8 C          59.2273   91.1296    4.5792 C.3     1  UNL1        0.1167
      9 O          58.2332   90.7868    3.5095 O.3     1  UNL1       -0.3840
     10 C          58.6519   90.2687    5.6644 C.3     1  UNL1        0.0490
     11 C          57.5075   89.7012    4.8781 C.3     1  UNL1        0.0072
     12 C          58.3752   89.5560    6.9549 C.2     1  UNL1       -0.0240
     13 C          58.4161   89.0400    8.3628 C.2     1  UNL1       -0.0047
     14 C          58.7718   88.7558    9.7920 C.2     1  UNL1       -0.0001
     15 C          59.4181   88.7229   11.1453 C.2     1  UNL1        0.0318
     16 C          58.4737   87.7519   11.7897 C.3     1  UNL1        0.0358
     17 C          60.3109   88.9435   12.3302 C.2     1  UNL1        0.2456
     18 O          59.5996   88.0301   13.2841 O.2     1  UNL1       -0.2702
     19 N          61.3894   89.4026   13.2662 N.am    1  UNL1       -0.2782
     20 C          63.3568   90.8673   13.3595 C.ar    1  UNL1        0.0893
     21 C          63.2455   91.3348   11.9386 C.ar    1  UNL1        0.0708
     22 C          64.2442   92.3101   11.3896 C.ar    1  UNL1        0.1367
     23 O          64.1330   92.7776    9.9685 O.3     1  UNL1       -0.5054
     24 C          65.3541   92.8180   12.2615 C.ar    1  UNL1        0.0456
     25 C          66.3527   93.7933   11.7125 C.ar    1  UNL1        0.0789
     26 C          67.4626   94.3012   12.5844 C.ar    1  UNL1        0.1445
     27 C          67.5738   93.8337   14.0054 C.ar    1  UNL1        0.0461
     28 C          68.6837   94.3415   14.8774 C.3     1  UNL1        0.0374
     29 C          66.5751   92.8583   14.5543 C.ar    1  UNL1        0.1355
     30 O          66.6863   92.3908   15.9754 O.3     1  UNL1       -0.5056
     31 C          65.4653   92.3505   13.6824 C.ar    1  UNL1        0.0715
     32 C          64.4666   91.3751   14.2314 C.ar    1  UNL1        0.1500
     33 O          64.5778   90.9077   15.6524 O.3     1  UNL1       -0.5042
     34 O          68.2929   95.2503   11.7722 O.3     1  UNL1       -0.4429
     35 C          67.6961   95.3291   10.3983 C.3     1  UNL1        0.3263
     36 C          67.9247   96.0145    9.0837 C.3     1  UNL1        0.1003
     37 O          67.6552   95.8451    8.9904 O.2     1  UNL1       -0.4401
     38 C          67.2995   96.1293    7.5612 C.2     1  UNL1        0.1719
     39 C          66.6532   96.1621    6.2079 C.2     1  UNL1        0.0163
     40 C          65.7604   95.9416    5.0230 C.3     1  UNL1        0.0579
     41 C          64.6818   95.4825    4.0870 C.3     1  UNL1        0.0468
     42 C          65.1116   96.2761    2.8888 C.3     1  UNL1        0.0041
     43 C          66.4970   94.4286   10.3614 C.2     1  UNL1        0.2515
     44 O          65.5999   94.2030    9.1806 O.2     1  UNL1       -0.2836
     45 H          61.1643   93.8361    1.4180 H       1  UNL1        0.2103
     46 H          58.4526   91.2699    2.6974 H       1  UNL1        0.2103
     47 H          61.2662   88.9685   14.1412 H       1  UNL1        0.1553
     48 H          63.4397   92.4603    9.4239 H       1  UNL1        0.2922
     49 H          67.3796   92.7081   16.5200 H       1  UNL1        0.2922
     50 H          65.2711   91.2249   16.1970 H       1  UNL1        0.2923
     51 C          66.4716   96.8549    4.0692 C.3     1  UNL1        0.1416
     52 O          66.4515   96.5656    2.5975 O.3     1  UNL1       -0.3816
     53 H          66.9333   95.7419    2.4233 H       1  UNL1        0.2105
     54 C          62.1357   90.8269   11.0666 C.2     1  UNL1        0.1217
     55 N          62.3872   89.6946   10.1156 N.2     1  UNL1       -0.1803
     56 N          61.2774   89.1868    9.2436 N.pl3   1  UNL1       -0.2299
     57 C          60.4080   90.1543    8.4966 C.3     1  UNL1        0.1283
     58 C          59.2981   89.6466    7.6246 C.3     1  UNL1        0.0956
     59 N          59.0576   88.1713    7.4996 N.3     1  UNL1       -0.2685
     60 C          57.9478   87.6635    6.6277 C.3     1  UNL1        0.0897
     61 C          59.9271   87.2037    8.2467 C.3     1  UNL1        0.0956
     62 C          61.0369   87.7114    9.1186 C.3     1  UNL1        0.1283
     63 O          63.6100   95.4359    2.1029 O.3     1  UNL1       -0.4522
     64 C          64.4107   95.3034   -0.3652 C.3     1  UNL1        0.1212
     65 C          64.3610   94.7235    1.0174 C.2     1  UNL1        0.3174
     66 O          65.0624   93.4312    1.3142 O.2     1  UNL1       -0.2501
@<TRIPOS>BOND
     1    64    65    1
     2    65    66    2
     3    65    63    1
     4     1    63    1
     5     1     2    1
     6     2     3    1
     7     2     4    1
     8     4     5    1
     9     4     6    1
    10     6     7    1
    11     6     8    1
    12     8     9    1
    13     8    10    1
    14    10    11    1
    15    10    12    1
    16    12    13    2
    17    13    14    1
    18    14    15    2
    19    15    16    1
    20    15    17    1
    21    17    18    2
    22    17    19   am
    23    19    20    1
    24    20    21   ar
    25    21    54    1
    26    54    55    2
    27    55    56    1
    28    56    57    1
    29    57    58    1
    30    58    59    1
    31    59    60    1
    32    59    61    1
    33    61    62    1
    34    21    22   ar
    35    22    23    1
    36    22    24   ar
    37    24    25   ar
    38    25    26   ar
    39    26    27   ar
    40    27    28    1
    41    27    29   ar
    42    29    30    1
    43    29    31   ar
    44    31    32   ar
    45    32    33    1
    46    26    34    1
    47    34    35    1
    48    35    36    1
    49    35    37    1
    50    37    38    1
    51    38    39    2
    52    39    40    1
    53    40    51    1
    54    51    52    1
    55    40    41    1
    56    41    42    1
    57    35    43    1
    58    43    44    2
    59    41     1    1
    60    32    20   ar
    61    62    56    1
    62    31    24   ar
    63    43    25    1
    64     5    45    1
    65     9    46    1
    66    19    47    1
    67    23    48    1
    68    30    49    1
    69    33    50    1
    70    52    53    1
