@<TRIPOS>MOLECULE
*****
 22 25 0 0 0
SMALL
GASTEIGER

@<TRIPOS>ATOM
      1 C          64.0202   90.8429   12.7533 C.ar    1  UNL1        0.1387
      2 C          63.1886   90.3109   11.6240 C.ar    1  UNL1        0.0369
      3 C          62.8194   88.8576   11.5844 C.ar    1  UNL1        0.0031
      4 C          63.2818   87.9363   12.6740 C.ar    1  UNL1        0.0002
      5 C          62.9127   86.4830   12.6344 C.ar    1  UNL1        0.0001
      6 C          63.3751   85.5617   13.7240 C.ar    1  UNL1        0.0015
      7 C          64.2068   86.0937   14.8534 C.ar    1  UNL1        0.0000
      8 C          64.5760   87.5470   14.8930 C.ar    1  UNL1        0.0001
      9 C          64.1135   88.4683   13.8033 C.ar    1  UNL1        0.0030
     10 C          64.4827   89.9217   13.8429 C.ar    1  UNL1        0.0369
     11 C          63.0060   84.1084   13.6844 C.ar    1  UNL1        0.0192
     12 C          62.3782   83.4611   14.8830 C.ar    1  UNL1        0.0988
     13 N          62.0090   82.0077   14.8434 N.ar    1  UNL1       -0.2423
     14 C          62.2676   81.2017   13.6051 C.ar    1  UNL1        0.0988
     15 C          62.8954   81.8490   12.4063 C.ar    1  UNL1        0.0192
     16 C          63.1540   81.0430   11.1680 C.ar    1  UNL1        0.0015
     17 C          63.7818   81.6903    9.9693 C.ar    1  UNL1        0.0000
     18 C          64.1510   83.1437   10.0089 C.ar    1  UNL1        0.0000
     19 C          63.8924   83.9497   11.2473 C.ar    1  UNL1        0.0001
     20 C          63.2646   83.3024   12.4460 C.ar    1  UNL1        0.0030
     21 C          65.8302   92.7064   12.7169 C.3     1  UNL1        0.2525
     22 O          64.3894   92.2963   12.7929 O.3     1  UNL1       -0.4714
@<TRIPOS>BOND
     1    21    22    1
     2    22     1    1
     3     1     2   ar
     4     2     3   ar
     5     3     4   ar
     6     4     5   ar
     7     5     6   ar
     8     6    11    1
     9    11    12   ar
    10    12    13   ar
    11    13    14   ar
    12    14    15   ar
    13    15    16   ar
    14    16    17   ar
    15    17    18   ar
    16    18    19   ar
    17    19    20   ar
    18     6     7   ar
    19     7     8   ar
    20     8     9   ar
    21     9    10   ar
    22    10     1   ar
    23     9     4   ar
    24    20    11   ar
    25    20    15   ar
@<TRIPOS>MOLECULE
*****
 22 25 0 0 0
SMALL
GASTEIGER

@<TRIPOS>ATOM
      1 C          65.5030   92.3488   13.0312 C.ar    1  UNL1        0.1387
      2 C          65.3630   92.9146   11.6491 C.ar    1  UNL1        0.0369
      3 C          64.4611   92.2473   10.6534 C.ar    1  UNL1        0.0031
      4 C          63.6994   91.0143   11.0397 C.ar    1  UNL1        0.0002
      5 C          62.7975   90.3471   10.0440 C.ar    1  UNL1        0.0001
      6 C          62.0358   89.1141   10.4304 C.ar    1  UNL1        0.0015
      7 C          62.1758   88.5482   11.8125 C.ar    1  UNL1        0.0000
      8 C          63.0777   89.2154   12.8083 C.ar    1  UNL1        0.0001
      9 C          63.8394   90.4485   12.4218 C.ar    1  UNL1        0.0030
     10 C          64.7413   91.1158   13.4176 C.ar    1  UNL1        0.0369
     11 C          61.1339   88.4468    9.4346 C.ar    1  UNL1        0.0192
     12 C          59.8112   89.0641    9.0892 C.ar    1  UNL1        0.0988
     13 N          58.9093   88.3968    8.0935 N.ar    1  UNL1       -0.2423
     14 C          59.3302   87.1124    7.4432 C.ar    1  UNL1        0.0988
     15 C          60.6530   86.4950    7.7886 C.ar    1  UNL1        0.0192
     16 C          61.0739   85.2106    7.1383 C.ar    1  UNL1        0.0015
     17 C          62.3967   84.5932    7.4837 C.ar    1  UNL1        0.0000
     18 C          63.2985   85.2605    8.4795 C.ar    1  UNL1        0.0000
     19 C          62.8776   86.5450    9.1298 C.ar    1  UNL1        0.0001
     20 C          61.5549   87.1623    8.7843 C.ar    1  UNL1        0.0030
     21 C          66.3567   92.6125   15.4708 C.3     1  UNL1        0.2525
     22 O          66.4049   93.0160   14.0269 O.3     1  UNL1       -0.4714
@<TRIPOS>BOND
     1    21    22    1
     2    22     1    1
     3     1     2   ar
     4     2     3   ar
     5     3     4   ar
     6     4     5   ar
     7     5     6   ar
     8     6    11    1
     9    11    12   ar
    10    12    13   ar
    11    13    14   ar
    12    14    15   ar
    13    15    16   ar
    14    16    17   ar
    15    17    18   ar
    16    18    19   ar
    17    19    20   ar
    18     6     7   ar
    19     7     8   ar
    20     8     9   ar
    21     9    10   ar
    22    10     1   ar
    23     9     4   ar
    24    20    11   ar
    25    20    15   ar
@<TRIPOS>MOLECULE
*****
 22 25 0 0 0
SMALL
GASTEIGER

@<TRIPOS>ATOM
      1 C          66.8012   93.1980   14.9618 C.ar    1  UNL1        0.1387
      2 C          66.6694   93.7953   13.5922 C.ar    1  UNL1        0.0369
      3 C          65.7756   93.1496   12.5752 C.ar    1  UNL1        0.0031
      4 C          65.0136   91.9067   12.9278 C.ar    1  UNL1        0.0002
      5 C          64.1199   91.2610   11.9107 C.ar    1  UNL1        0.0001
      6 C          63.3579   90.0181   12.2633 C.ar    1  UNL1        0.0015
      7 C          63.4896   89.4207   13.6329 C.ar    1  UNL1        0.0000
      8 C          64.3834   90.0663   14.6500 C.ar    1  UNL1        0.0001
      9 C          65.1454   91.3094   14.2973 C.ar    1  UNL1        0.0030
     10 C          66.0392   91.9550   15.3144 C.ar    1  UNL1        0.0369
     11 C          62.4641   89.3724   11.2463 C.ar    1  UNL1        0.0192
     12 C          61.6974   90.2207   10.2754 C.ar    1  UNL1        0.0988
     13 N          60.8037   89.5750    9.2584 N.ar    1  UNL1       -0.2423
     14 C          60.6766   88.0812    9.2122 C.ar    1  UNL1        0.0988
     15 C          61.4432   87.2328   10.1832 C.ar    1  UNL1        0.0192
     16 C          61.3161   85.7390   10.1371 C.ar    1  UNL1        0.0015
     17 C          62.0828   84.8907   11.1080 C.ar    1  UNL1        0.0000
     18 C          62.9766   85.5363   12.1250 C.ar    1  UNL1        0.0000
     19 C          63.1037   87.0303   12.1711 C.ar    1  UNL1        0.0001
     20 C          62.3370   87.8785   11.2002 C.ar    1  UNL1        0.0030
     21 C          69.1850   93.7536   15.8326 C.3     1  UNL1        0.2525
     22 O          67.6949   93.8436   15.9788 O.3     1  UNL1       -0.4714
@<TRIPOS>BOND
     1    21    22    1
     2    22     1    1
     3     1     2   ar
     4     2     3   ar
     5     3     4   ar
     6     4     5   ar
     7     5     6   ar
     8     6    11    1
     9    11    12   ar
    10    12    13   ar
    11    13    14   ar
    12    14    15   ar
    13    15    16   ar
    14    16    17   ar
    15    17    18   ar
    16    18    19   ar
    17    19    20   ar
    18     6     7   ar
    19     7     8   ar
    20     8     9   ar
    21     9    10   ar
    22    10     1   ar
    23     9     4   ar
    24    20    11   ar
    25    20    15   ar
@<TRIPOS>MOLECULE
*****
 22 25 0 0 0
SMALL
GASTEIGER

@<TRIPOS>ATOM
      1 C          61.9071   86.6745    9.4567 C.ar    1  UNL1        0.1387
      2 C          62.2708   85.8662   10.6668 C.ar    1  UNL1        0.0369
      3 C          62.7845   86.5503   11.8990 C.ar    1  UNL1        0.0031
      4 C          62.9344   88.0426   11.9211 C.ar    1  UNL1        0.0002
      5 C          63.4480   88.7266   13.1533 C.ar    1  UNL1        0.0001
      6 C          63.5979   90.2189   13.1753 C.ar    1  UNL1        0.0015
      7 C          63.2342   91.0273   11.9652 C.ar    1  UNL1        0.0000
      8 C          62.7206   90.3432   10.7330 C.ar    1  UNL1        0.0001
      9 C          62.5707   88.8508   10.7110 C.ar    1  UNL1        0.0030
     10 C          62.0570   88.1668    9.4788 C.ar    1  UNL1        0.0369
     11 C          64.1115   90.9030   14.4075 C.ar    1  UNL1        0.0192
     12 C          63.2555   90.9754   15.6371 C.ar    1  UNL1        0.0988
     13 N          63.7691   91.6595   16.8693 N.ar    1  UNL1       -0.2423
     14 C          65.1387   92.2711   16.8719 C.ar    1  UNL1        0.0988
     15 C          65.9948   92.1987   15.6422 C.ar    1  UNL1        0.0192
     16 C          67.3644   92.8103   15.6448 C.ar    1  UNL1        0.0015
     17 C          68.2205   92.7379   14.4151 C.ar    1  UNL1        0.0000
     18 C          67.7068   92.0539   13.1829 C.ar    1  UNL1        0.0000
     19 C          66.3372   91.4422   13.1804 C.ar    1  UNL1        0.0001
     20 C          65.4812   91.5146   14.4100 C.ar    1  UNL1        0.0030
     21 C          59.9673   86.1802    7.8007 C.3     1  UNL1        0.2525
     22 O          61.3935   85.9904    8.2245 O.3     1  UNL1       -0.4714
@<TRIPOS>BOND
     1    21    22    1
     2    22     1    1
     3     1     2   ar
     4     2     3   ar
     5     3     4   ar
     6     4     5   ar
     7     5     6   ar
     8     6    11    1
     9    11    12   ar
    10    12    13   ar
    11    13    14   ar
    12    14    15   ar
    13    15    16   ar
    14    16    17   ar
    15    17    18   ar
    16    18    19   ar
    17    19    20   ar
    18     6     7   ar
    19     7     8   ar
    20     8     9   ar
    21     9    10   ar
    22    10     1   ar
    23     9     4   ar
    24    20    11   ar
    25    20    15   ar
@<TRIPOS>MOLECULE
*****
 22 25 0 0 0
SMALL
GASTEIGER

@<TRIPOS>ATOM
      1 C          59.4269   88.5388    7.4868 C.ar    1  UNL1        0.1387
      2 C          59.2875   87.0466    7.5468 C.ar    1  UNL1        0.0369
      3 C          60.0214   86.2663    8.5969 C.ar    1  UNL1        0.0031
      4 C          60.8947   86.9784    9.5869 C.ar    1  UNL1        0.0002
      5 C          61.6286   86.1982   10.6370 C.ar    1  UNL1        0.0001
      6 C          62.5020   86.9102   11.6270 C.ar    1  UNL1        0.0015
      7 C          62.6415   88.4025   11.5670 C.ar    1  UNL1        0.0000
      8 C          61.9076   89.1828   10.5169 C.ar    1  UNL1        0.0001
      9 C          61.0342   88.4706    9.5269 C.ar    1  UNL1        0.0030
     10 C          60.3003   89.2509    8.4768 C.ar    1  UNL1        0.0369
     11 C          63.2359   86.1300   12.6771 C.ar    1  UNL1        0.0192
     12 C          63.8891   86.8445   13.8228 C.ar    1  UNL1        0.0988
     13 N          64.6230   86.0643   14.8728 N.ar    1  UNL1       -0.2423
     14 C          64.7036   84.5695   14.7772 C.ar    1  UNL1        0.0988
     15 C          64.0503   83.8549   13.6315 C.ar    1  UNL1        0.0192
     16 C          64.1310   82.3602   13.5359 C.ar    1  UNL1        0.0015
     17 C          63.4777   81.6456   12.3902 C.ar    1  UNL1        0.0000
     18 C          62.7438   82.4258   11.3401 C.ar    1  UNL1        0.0000
     19 C          62.6632   83.9206   11.4358 C.ar    1  UNL1        0.0001
     20 C          63.3165   84.6352   12.5814 C.ar    1  UNL1        0.0030
     21 C          59.3953   90.4117    5.6864 C.3     1  UNL1        0.2525
     22 O          58.6930   89.3190    6.4367 O.3     1  UNL1       -0.4714
@<TRIPOS>BOND
     1    21    22    1
     2    22     1    1
     3     1     2   ar
     4     2     3   ar
     5     3     4   ar
     6     4     5   ar
     7     5     6   ar
     8     6    11    1
     9    11    12   ar
    10    12    13   ar
    11    13    14   ar
    12    14    15   ar
    13    15    16   ar
    14    16    17   ar
    15    17    18   ar
    16    18    19   ar
    17    19    20   ar
    18     6     7   ar
    19     7     8   ar
    20     8     9   ar
    21     9    10   ar
    22    10     1   ar
    23     9     4   ar
    24    20    11   ar
    25    20    15   ar
@<TRIPOS>MOLECULE
*****
 22 25 0 0 0
SMALL
GASTEIGER

@<TRIPOS>ATOM
      1 C          63.1449   81.9574   13.8781 C.ar    1  UNL1        0.1387
      2 C          62.7948   82.4292   12.4980 C.ar    1  UNL1        0.0369
      3 C          62.8953   83.8861   12.1553 C.ar    1  UNL1        0.0031
      4 C          63.3459   84.8712   13.1928 C.ar    1  UNL1        0.0002
      5 C          63.4464   86.3281   12.8502 C.ar    1  UNL1        0.0001
      6 C          63.8970   87.3132   13.8877 C.ar    1  UNL1        0.0015
      7 C          64.2472   86.8415   15.2679 C.ar    1  UNL1        0.0000
      8 C          64.1467   85.3846   15.6105 C.ar    1  UNL1        0.0001
      9 C          63.6961   84.3994   14.5729 C.ar    1  UNL1        0.0030
     10 C          63.5956   82.9426   14.9156 C.ar    1  UNL1        0.0369
     11 C          63.9975   88.7701   13.5450 C.ar    1  UNL1        0.0192
     12 C          64.7415   89.7044   14.4525 C.ar    1  UNL1        0.0988
     13 N          64.8420   91.1613   14.1098 N.ar    1  UNL1       -0.2423
     14 C          64.1985   91.6838   12.8598 C.ar    1  UNL1        0.0988
     15 C          63.4545   90.7495   11.9522 C.ar    1  UNL1        0.0192
     16 C          62.8109   91.2721   10.7022 C.ar    1  UNL1        0.0015
     17 C          62.0669   90.3378    9.7946 C.ar    1  UNL1        0.0000
     18 C          61.9664   88.8809   10.1373 C.ar    1  UNL1        0.0000
     19 C          62.6100   88.3584   11.3874 C.ar    1  UNL1        0.0001
     20 C          63.3540   89.2927   12.2949 C.ar    1  UNL1        0.0030
     21 C          62.1466   79.6025   13.4224 C.3     1  UNL1        0.2525
     22 O          63.0445   80.5006   14.2207 O.3     1  UNL1       -0.4714
@<TRIPOS>BOND
     1    21    22    1
     2    22     1    1
     3     1     2   ar
     4     2     3   ar
     5     3     4   ar
     6     4     5   ar
     7     5     6   ar
     8     6    11    1
     9    11    12   ar
    10    12    13   ar
    11    13    14   ar
    12    14    15   ar
    13    15    16   ar
    14    16    17   ar
    15    17    18   ar
    16    18    19   ar
    17    19    20   ar
    18     6     7   ar
    19     7     8   ar
    20     8     9   ar
    21     9    10   ar
    22    10     1   ar
    23     9     4   ar
    24    20    11   ar
    25    20    15   ar
@<TRIPOS>MOLECULE
*****
 22 25 0 0 0
SMALL
GASTEIGER

@<TRIPOS>ATOM
      1 C          60.2071   87.3761    8.9298 C.ar    1  UNL1        0.1387
      2 C          60.0871   88.8460    8.6564 C.ar    1  UNL1        0.0369
      3 C          60.8672   89.8281    9.4792 C.ar    1  UNL1        0.0031
      4 C          61.7673   89.3402   10.5754 C.ar    1  UNL1        0.0002
      5 C          62.5474   90.3222   11.3982 C.ar    1  UNL1        0.0001
      6 C          63.4475   89.8343   12.4945 C.ar    1  UNL1        0.0015
      7 C          63.5675   88.3643   12.7679 C.ar    1  UNL1        0.0000
      8 C          62.7874   87.3823   11.9451 C.ar    1  UNL1        0.0001
      9 C          61.8873   87.8702   10.8488 C.ar    1  UNL1        0.0030
     10 C          61.1072   86.8882   10.0260 C.ar    1  UNL1        0.0369
     11 C          64.2276   90.8164   13.3173 C.ar    1  UNL1        0.0192
     12 C          64.2707   90.6769   14.8101 C.ar    1  UNL1        0.0988
     13 N          65.0508   91.6589   15.6329 N.ar    1  UNL1       -0.2423
     14 C          65.7878   92.7805   14.9629 C.ar    1  UNL1        0.0988
     15 C          65.7446   92.9201   13.4700 C.ar    1  UNL1        0.0192
     16 C          66.4816   94.0416   12.7999 C.ar    1  UNL1        0.0015
     17 C          66.4384   94.1812   11.3070 C.ar    1  UNL1        0.0000
     18 C          65.6583   93.1991   10.4842 C.ar    1  UNL1        0.0000
     19 C          64.9214   92.0775   11.1543 C.ar    1  UNL1        0.0001
     20 C          64.9645   91.9380   12.6472 C.ar    1  UNL1        0.0030
     21 C          60.1411   85.4703    7.1653 C.3     1  UNL1        0.2525
     22 O          59.4270   86.3940    8.1070 O.3     1  UNL1       -0.4714
@<TRIPOS>BOND
     1    21    22    1
     2    22     1    1
     3     1     2   ar
     4     2     3   ar
     5     3     4   ar
     6     4     5   ar
     7     5     6   ar
     8     6    11    1
     9    11    12   ar
    10    12    13   ar
    11    13    14   ar
    12    14    15   ar
    13    15    16   ar
    14    16    17   ar
    15    17    18   ar
    16    18    19   ar
    17    19    20   ar
    18     6     7   ar
    19     7     8   ar
    20     8     9   ar
    21     9    10   ar
    22    10     1   ar
    23     9     4   ar
    24    20    11   ar
    25    20    15   ar
@<TRIPOS>MOLECULE
*****
 22 25 0 0 0
SMALL
GASTEIGER

@<TRIPOS>ATOM
      1 C          59.7963   88.0429    7.7669 C.ar    1  UNL1        0.1387
      2 C          59.3670   88.5527    9.1106 C.ar    1  UNL1        0.0369
      3 C          59.9579   87.9672   10.3588 C.ar    1  UNL1        0.0031
      4 C          60.9781   86.8718   10.2632 C.ar    1  UNL1        0.0002
      5 C          61.5691   86.2862   11.5113 C.ar    1  UNL1        0.0001
      6 C          62.5893   85.1908   11.4157 C.ar    1  UNL1        0.0015
      7 C          63.0187   84.6810   10.0719 C.ar    1  UNL1        0.0000
      8 C          62.4278   85.2666    8.8238 C.ar    1  UNL1        0.0001
      9 C          61.4075   86.3620    8.9194 C.ar    1  UNL1        0.0030
     10 C          60.8165   86.9476    7.6713 C.ar    1  UNL1        0.0369
     11 C          63.1802   84.6052   12.6639 C.ar    1  UNL1        0.0192
     12 C          63.8208   85.5011   13.6822 C.ar    1  UNL1        0.0988
     13 N          64.4117   84.9155   14.9304 N.ar    1  UNL1       -0.2423
     14 C          64.3621   83.4341   15.1602 C.ar    1  UNL1        0.0988
     15 C          63.7215   82.5381   14.1418 C.ar    1  UNL1        0.0192
     16 C          63.6718   81.0567   14.3716 C.ar    1  UNL1        0.0015
     17 C          63.0312   80.1608   13.3533 C.ar    1  UNL1        0.0000
     18 C          62.4403   80.7464   12.1051 C.ar    1  UNL1        0.0000
     19 C          62.4900   82.2279   11.8753 C.ar    1  UNL1        0.0001
     20 C          63.1306   83.1237   12.8937 C.ar    1  UNL1        0.0030
     21 C          59.4783   90.0590    6.1593 C.3     1  UNL1        0.2525
     22 O          59.2054   88.6285    6.5187 O.3     1  UNL1       -0.4714
@<TRIPOS>BOND
     1    21    22    1
     2    22     1    1
     3     1     2   ar
     4     2     3   ar
     5     3     4   ar
     6     4     5   ar
     7     5     6   ar
     8     6    11    1
     9    11    12   ar
    10    12    13   ar
    11    13    14   ar
    12    14    15   ar
    13    15    16   ar
    14    16    17   ar
    15    17    18   ar
    16    18    19   ar
    17    19    20   ar
    18     6     7   ar
    19     7     8   ar
    20     8     9   ar
    21     9    10   ar
    22    10     1   ar
    23     9     4   ar
    24    20    11   ar
    25    20    15   ar
@<TRIPOS>MOLECULE
*****
 22 25 0 0 0
SMALL
GASTEIGER

@<TRIPOS>ATOM
      1 C          62.9121   80.5260   11.5777 C.ar    1  UNL1        0.1387
      2 C          63.4792   81.3002   10.4249 C.ar    1  UNL1        0.0369
      3 C          63.7351   82.7718   10.5631 C.ar    1  UNL1        0.0031
      4 C          63.4239   83.4691   11.8541 C.ar    1  UNL1        0.0002
      5 C          63.6797   84.9407   11.9923 C.ar    1  UNL1        0.0001
      6 C          63.3685   85.6380   13.2833 C.ar    1  UNL1        0.0015
      7 C          62.8013   84.8638   14.4362 C.ar    1  UNL1        0.0000
      8 C          62.5455   83.3923   14.2980 C.ar    1  UNL1        0.0001
      9 C          62.8568   82.6949   13.0069 C.ar    1  UNL1        0.0030
     10 C          62.6009   81.2234   12.8687 C.ar    1  UNL1        0.0369
     11 C          63.6243   87.1096   13.4215 C.ar    1  UNL1        0.0192
     12 C          64.3648   87.6331   14.6163 C.ar    1  UNL1        0.0988
     13 N          64.6207   89.1046   14.7546 N.ar    1  UNL1       -0.2423
     14 C          64.1361   90.0526   13.6980 C.ar    1  UNL1        0.0988
     15 C          63.3956   89.5291   12.5031 C.ar    1  UNL1        0.0192
     16 C          62.9110   90.4771   11.4465 C.ar    1  UNL1        0.0015
     17 C          62.1704   89.9536   10.2517 C.ar    1  UNL1        0.0000
     18 C          61.9146   88.4821   10.1134 C.ar    1  UNL1        0.0000
     19 C          62.3992   87.5341   11.1701 C.ar    1  UNL1        0.0001
     20 C          63.1397   88.0576   12.3649 C.ar    1  UNL1        0.0030
     21 C          62.7226   78.4053   10.0889 C.3     1  UNL1        0.2525
     22 O          62.6563   79.0545   11.4394 O.3     1  UNL1       -0.4714
@<TRIPOS>BOND
     1    21    22    1
     2    22     1    1
     3     1     2   ar
     4     2     3   ar
     5     3     4   ar
     6     4     5   ar
     7     5     6   ar
     8     6    11    1
     9    11    12   ar
    10    12    13   ar
    11    13    14   ar
    12    14    15   ar
    13    15    16   ar
    14    16    17   ar
    15    17    18   ar
    16    18    19   ar
    17    19    20   ar
    18     6     7   ar
    19     7     8   ar
    20     8     9   ar
    21     9    10   ar
    22    10     1   ar
    23     9     4   ar
    24    20    11   ar
    25    20    15   ar
