@<TRIPOS>MOLECULE
*****
 33 36 0 0 0
SMALL
GASTEIGER

@<TRIPOS>ATOM
      1 C          61.2290   88.4070    9.9695 C.ar    1  UNL1        0.0951
      2 C          60.3343   88.3054    8.7699 C.ar    1  UNL1        0.1454
      3 F          59.3642   89.4074    8.4624 F       1  UNL1       -0.2040
      4 C          60.4096   87.1019    7.8777 C.ar    1  UNL1        0.0312
      5 C          61.3797   85.9999    8.1851 C.ar    1  UNL1        0.0204
      6 C          62.2745   86.1015    9.3848 C.ar    1  UNL1        0.0924
      7 C          62.1992   87.3050   10.2770 C.ar    1  UNL1        0.1598
      8 F          63.0939   87.4065   11.4766 F       1  UNL1       -0.2026
      9 C          61.1537   89.6104   10.8616 C.2     1  UNL1        0.2036
     10 O          59.8458   90.0034   11.4821 O.2     1  UNL1       -0.2863
     11 C          63.3831   89.7060   16.3217 C.3     1  UNL1        0.0307
     12 C          63.6767   90.2894   14.9713 C.2     1  UNL1        0.0074
     13 C          64.8608   91.1912   14.7853 C.2     1  UNL1        0.2278
     14 N          65.1544   91.7746   13.4349 N.2     1  UNL1       -0.0314
     15 C          64.2640   91.4561   12.2706 C.2     1  UNL1        0.3720
     16 N          64.3021   91.8802   10.8323 N.2     1  UNL1       -0.0307
     17 C          63.1416   91.2405   10.1294 C.2     1  UNL1        0.2390
     18 C          62.3863   90.4209   11.1333 C.2     1  UNL1        0.0896
     19 C          63.0799   90.5542   12.4566 C.2     1  UNL1        0.0771
     20 C          62.7863   89.9709   13.8070 C.3     1  UNL1        0.0602
     21 N          63.2446   84.9995    9.6923 N.pl3   1  UNL1       -0.2127
     22 H          64.0206   84.8490    9.1055 H       1  UNL1        0.1738
     23 S          63.0323   84.1269   10.8937 S.O2    1  UNL1        0.0759
     24 O          61.6874   84.7542   11.1117 O.2     1  UNL1       -0.1499
     25 O          64.3772   83.4996   10.6757 O.2     1  UNL1       -0.1499
     26 C          62.8200   83.2543   12.0952 C.ar    1  UNL1        0.1547
     27 C          62.5981   81.7809   11.9222 C.ar    1  UNL1        0.0521
     28 C          62.3858   80.9082   13.1236 C.ar    1  UNL1        0.1416
     29 F          62.1638   79.4349   12.9505 F       1  UNL1       -0.2041
     30 C          62.3955   81.5089   14.4980 C.ar    1  UNL1        0.0320
     31 C          62.6175   82.9823   14.6711 C.ar    1  UNL1        0.0333
     32 C          62.8297   83.8549   13.4697 C.ar    1  UNL1        0.1590
     33 F          63.0517   85.3283   13.6426 F       1  UNL1       -0.2027
@<TRIPOS>BOND
     1    11    12    1
     2    12    13    2
     3    13    14    1
     4    14    15    2
     5    15    16    1
     6    16    17    2
     7    17    18    1
     8    18     9    1
     9     9    10    2
    10     9     1    1
    11     1     2   ar
    12     2     3    1
    13     2     4   ar
    14     4     5   ar
    15     5     6   ar
    16     6    21    1
    17    21    23    1
    18    23    24    2
    19    23    25    2
    20    23    26    1
    21    26    27   ar
    22    27    28   ar
    23    28    29    1
    24    28    30   ar
    25    30    31   ar
    26    31    32   ar
    27    32    33    1
    28     6     7   ar
    29     7     8    1
    30    18    19    2
    31    19    20    1
    32    20    12    1
    33    19    15    1
    34     7     1   ar
    35    32    26   ar
    36    21    22    1
@<TRIPOS>MOLECULE
*****
 33 36 0 0 0
SMALL
GASTEIGER

@<TRIPOS>ATOM
      1 C          64.0002   88.4442   15.3867 C.ar    1  UNL1        0.0951
      2 C          63.1281   89.0097   16.4681 C.ar    1  UNL1        0.1454
      3 F          62.9011   90.4901   16.5511 F       1  UNL1       -0.2040
      4 C          62.4829   88.0949   17.4666 C.ar    1  UNL1        0.0312
      5 C          62.7098   86.6145   17.3836 C.ar    1  UNL1        0.0204
      6 C          63.5820   86.0490   16.3021 C.ar    1  UNL1        0.0924
      7 C          64.2271   86.9637   15.3036 C.ar    1  UNL1        0.1598
      8 F          65.0992   86.3981   14.2222 F       1  UNL1       -0.2026
      9 C          64.6453   89.3590   14.3882 C.2     1  UNL1        0.2036
     10 O          66.0693   89.7908   14.5773 O.2     1  UNL1       -0.2863
     11 C          61.8403   85.4283   11.0009 C.3     1  UNL1        0.0307
     12 C          62.0525   86.9116   11.0710 C.2     1  UNL1        0.0074
     13 C          61.4299   87.8077   10.0418 C.2     1  UNL1        0.2278
     14 N          61.6421   89.2910   10.1119 N.2     1  UNL1       -0.0314
     15 C          62.4767   89.8781   11.2112 C.2     1  UNL1        0.3720
     16 N          62.8591   91.2919   11.5354 N.2     1  UNL1       -0.0307
     17 C          63.7181   91.2695   12.7649 C.2     1  UNL1        0.2390
     18 C          63.8665   89.8419   13.2007 C.2     1  UNL1        0.0896
     19 C          63.0993   88.9820   12.2404 C.2     1  UNL1        0.0771
     20 C          62.8871   87.4987   12.1703 C.3     1  UNL1        0.0602
     21 N          63.8089   84.5685   16.2191 N.pl3   1  UNL1       -0.2127
     22 H          64.0703   84.0648   17.0235 H       1  UNL1        0.1738
     23 S          63.6375   83.8557   14.9105 S.O2    1  UNL1        0.0759
     24 O          62.3160   84.5370   14.7123 O.2     1  UNL1       -0.1499
     25 O          64.9590   83.1743   15.1086 O.2     1  UNL1       -0.1499
     26 C          63.4662   83.1428   13.6018 C.ar    1  UNL1        0.1547
     27 C          64.2694   83.5645   12.4073 C.ar    1  UNL1        0.0521
     28 C          64.0982   82.8517   11.0987 C.ar    1  UNL1        0.1416
     29 F          64.9014   83.2734    9.9042 F       1  UNL1       -0.2041
     30 C          63.1236   81.7171   10.9846 C.ar    1  UNL1        0.0320
     31 C          62.3204   81.2953   12.1791 C.ar    1  UNL1        0.0333
     32 C          62.4917   82.0082   13.4877 C.ar    1  UNL1        0.1590
     33 F          61.6885   81.5865   14.6823 F       1  UNL1       -0.2027
@<TRIPOS>BOND
     1    11    12    1
     2    12    13    2
     3    13    14    1
     4    14    15    2
     5    15    16    1
     6    16    17    2
     7    17    18    1
     8    18     9    1
     9     9    10    2
    10     9     1    1
    11     1     2   ar
    12     2     3    1
    13     2     4   ar
    14     4     5   ar
    15     5     6   ar
    16     6    21    1
    17    21    23    1
    18    23    24    2
    19    23    25    2
    20    23    26    1
    21    26    27   ar
    22    27    28   ar
    23    28    29    1
    24    28    30   ar
    25    30    31   ar
    26    31    32   ar
    27    32    33    1
    28     6     7   ar
    29     7     8    1
    30    18    19    2
    31    19    20    1
    32    20    12    1
    33    19    15    1
    34     7     1   ar
    35    32    26   ar
    36    21    22    1
@<TRIPOS>MOLECULE
*****
 33 36 0 0 0
SMALL
GASTEIGER

@<TRIPOS>ATOM
      1 C          61.9286   89.2308   11.7358 C.ar    1  UNL1        0.0951
      2 C          60.6128   89.6793   11.1723 C.ar    1  UNL1        0.1454
      3 F          60.0508   91.0170   11.5529 F       1  UNL1       -0.2040
      4 C          59.8590   88.7903   10.2282 C.ar    1  UNL1        0.0312
      5 C          60.4210   87.4526    9.8476 C.ar    1  UNL1        0.0204
      6 C          61.7368   87.0041   10.4112 C.ar    1  UNL1        0.0924
      7 C          62.4906   87.8932   11.3553 C.ar    1  UNL1        0.1598
      8 F          63.8064   87.4446   11.9188 F       1  UNL1       -0.2026
      9 C          62.6823   90.1199   12.6800 C.2     1  UNL1        0.2036
     10 O          62.4365   90.0256   14.1567 O.2     1  UNL1       -0.2863
     11 C          66.6234   92.4943   16.3708 C.3     1  UNL1        0.0307
     12 C          66.2540   92.5589   14.9184 C.2     1  UNL1        0.0074
     13 C          67.0224   93.4499   13.9880 C.2     1  UNL1        0.2278
     14 N          66.6531   93.5145   12.5356 N.2     1  UNL1       -0.0314
     15 C          65.5154   92.6881   12.0136 C.2     1  UNL1        0.3720
     16 N          64.9253   92.5450   10.6420 N.2     1  UNL1       -0.0307
     17 C          63.7922   91.5656   10.7247 C.2     1  UNL1        0.2390
     18 C          63.6820   91.1033   12.1473 C.2     1  UNL1        0.0896
     19 C          64.7470   91.7970   12.9440 C.2     1  UNL1        0.0771
     20 C          65.1163   91.7325   14.3964 C.3     1  UNL1        0.0602
     21 N          62.2988   85.6664   10.0306 N.pl3   1  UNL1       -0.2127
     22 H          62.4706   85.4559    9.0843 H       1  UNL1        0.1738
     23 S          62.5990   84.6496   11.0917 S.O2    1  UNL1        0.0759
     24 O          63.5652   83.9701   10.1673 O.2     1  UNL1       -0.1499
     25 O          61.6328   85.3291   12.0161 O.2     1  UNL1       -0.1499
     26 C          62.8991   83.6327   12.1528 C.ar    1  UNL1        0.1547
     27 C          62.5047   82.1996   11.9512 C.ar    1  UNL1        0.0521
     28 C          62.8048   81.1828   13.0123 C.ar    1  UNL1        0.1416
     29 F          62.4105   79.7497   12.8106 F       1  UNL1       -0.2041
     30 C          63.4993   81.5990   14.2750 C.ar    1  UNL1        0.0320
     31 C          63.8936   83.0321   14.4767 C.ar    1  UNL1        0.0333
     32 C          63.5935   84.0490   13.4156 C.ar    1  UNL1        0.1590
     33 F          63.9879   85.4821   13.6171 F       1  UNL1       -0.2027
@<TRIPOS>BOND
     1    11    12    1
     2    12    13    2
     3    13    14    1
     4    14    15    2
     5    15    16    1
     6    16    17    2
     7    17    18    1
     8    18     9    1
     9     9    10    2
    10     9     1    1
    11     1     2   ar
    12     2     3    1
    13     2     4   ar
    14     4     5   ar
    15     5     6   ar
    16     6    21    1
    17    21    23    1
    18    23    24    2
    19    23    25    2
    20    23    26    1
    21    26    27   ar
    22    27    28   ar
    23    28    29    1
    24    28    30   ar
    25    30    31   ar
    26    31    32   ar
    27    32    33    1
    28     6     7   ar
    29     7     8    1
    30    18    19    2
    31    19    20    1
    32    20    12    1
    33    19    15    1
    34     7     1   ar
    35    32    26   ar
    36    21    22    1
@<TRIPOS>MOLECULE
*****
 33 36 0 0 0
SMALL
GASTEIGER

@<TRIPOS>ATOM
      1 C          64.0577   84.5675   13.9190 C.ar    1  UNL1        0.0951
      2 C          63.8781   83.1315   14.3135 C.ar    1  UNL1        0.1454
      3 F          64.4507   82.6318   15.6067 F       1  UNL1       -0.2040
      4 C          63.1260   82.1952   13.4148 C.ar    1  UNL1        0.0312
      5 C          62.5534   82.6950   12.1215 C.ar    1  UNL1        0.0204
      6 C          62.7330   84.1310   11.7271 C.ar    1  UNL1        0.0924
      7 C          63.4851   85.0673   12.6258 C.ar    1  UNL1        0.1598
      8 F          63.6647   86.5033   12.2313 F       1  UNL1       -0.2026
      9 C          64.8099   85.5037   14.8177 C.2     1  UNL1        0.2036
     10 O          66.3086   85.4598   14.8610 O.2     1  UNL1       -0.2863
     11 C          65.1746   91.2589   13.5781 C.3     1  UNL1        0.0307
     12 C          64.5083   90.3583   14.5756 C.2     1  UNL1        0.0074
     13 C          63.6368   90.9417   15.6480 C.2     1  UNL1        0.2278
     14 N          62.9705   90.0410   16.6455 N.2     1  UNL1       -0.0314
     15 C          63.1756   88.5571   16.5705 C.2     1  UNL1        0.3720
     16 N          62.6531   87.4279   17.4084 N.2     1  UNL1       -0.0307
     17 C          63.2017   86.1467   16.8538 C.2     1  UNL1        0.2390
     18 C          64.0633   86.4840   15.6731 C.2     1  UNL1        0.0896
     19 C          64.0471   87.9737   15.4980 C.2     1  UNL1        0.0771
     20 C          64.7135   88.8743   14.5006 C.3     1  UNL1        0.0602
     21 N          62.1604   84.6308   10.4339 N.pl3   1  UNL1       -0.2127
     22 H          62.0040   84.0048    9.6903 H       1  UNL1        0.1738
     23 S          61.8261   86.0842   10.2736 S.O2    1  UNL1        0.0759
     24 O          61.0302   86.0413   11.5442 O.2     1  UNL1       -0.1499
     25 O          62.6220   86.1272    9.0029 O.2     1  UNL1       -0.1499
     26 C          61.4918   87.5377   10.1133 C.ar    1  UNL1        0.1547
     27 C          62.3792   88.5829   10.7217 C.ar    1  UNL1        0.0521
     28 C          62.0450   90.0363   10.5614 C.ar    1  UNL1        0.1416
     29 F          62.9324   91.0815   11.1698 F       1  UNL1       -0.2041
     30 C          60.8234   90.4447    9.7927 C.ar    1  UNL1        0.0320
     31 C          59.9360   89.3996    9.1843 C.ar    1  UNL1        0.0333
     32 C          60.2702   87.9461    9.3445 C.ar    1  UNL1        0.1590
     33 F          59.3828   86.9009    8.7362 F       1  UNL1       -0.2027
@<TRIPOS>BOND
     1    11    12    1
     2    12    13    2
     3    13    14    1
     4    14    15    2
     5    15    16    1
     6    16    17    2
     7    17    18    1
     8    18     9    1
     9     9    10    2
    10     9     1    1
    11     1     2   ar
    12     2     3    1
    13     2     4   ar
    14     4     5   ar
    15     5     6   ar
    16     6    21    1
    17    21    23    1
    18    23    24    2
    19    23    25    2
    20    23    26    1
    21    26    27   ar
    22    27    28   ar
    23    28    29    1
    24    28    30   ar
    25    30    31   ar
    26    31    32   ar
    27    32    33    1
    28     6     7   ar
    29     7     8    1
    30    18    19    2
    31    19    20    1
    32    20    12    1
    33    19    15    1
    34     7     1   ar
    35    32    26   ar
    36    21    22    1
@<TRIPOS>MOLECULE
*****
 33 36 0 0 0
SMALL
GASTEIGER

@<TRIPOS>ATOM
      1 C          64.4677   91.1259   12.7534 C.ar    1  UNL1        0.0951
      2 C          65.1558   91.9868   11.7360 C.ar    1  UNL1        0.1454
      3 F          66.4803   92.6137   12.0566 F       1  UNL1       -0.2040
      4 C          64.5195   92.2210   10.3980 C.ar    1  UNL1        0.0312
      5 C          63.1950   91.5941   10.0774 C.ar    1  UNL1        0.0204
      6 C          62.5069   90.7331   11.0949 C.ar    1  UNL1        0.0924
      7 C          63.1432   90.4990   12.4329 C.ar    1  UNL1        0.1598
      8 F          62.4550   89.6380   13.4503 F       1  UNL1       -0.2026
      9 C          65.1040   90.8918   14.0914 C.2     1  UNL1        0.2036
     10 O          66.5407   91.2613   14.3137 O.2     1  UNL1       -0.2863
     11 C          64.6893   85.0207   14.4790 C.3     1  UNL1        0.0307
     12 C          64.2044   86.2380   15.2092 C.2     1  UNL1        0.0074
     13 C          63.3427   86.0880   16.4277 C.2     1  UNL1        0.2278
     14 N          62.8578   87.3053   17.1579 N.2     1  UNL1       -0.0314
     15 C          63.2348   88.6726   16.6695 C.2     1  UNL1        0.3720
     16 N          62.9092   90.0454   17.1788 N.2     1  UNL1       -0.0307
     17 C          63.5698   91.0438   16.2750 C.2     1  UNL1        0.2390
     18 C          64.3036   90.2881   15.2072 C.2     1  UNL1        0.0896
     19 C          64.0965   88.8225   15.4510 C.2     1  UNL1        0.0771
     20 C          64.5814   87.6052   14.7209 C.3     1  UNL1        0.0602
     21 N          61.1824   90.1063   10.7743 N.pl3   1  UNL1       -0.2127
     22 H          60.3518   90.5073   11.1186 H       1  UNL1        0.1738
     23 S          61.1234   88.8685    9.9290 S.O2    1  UNL1        0.0759
     24 O          61.3442   88.0247   11.1492 O.2     1  UNL1       -0.1499
     25 O          60.9026   89.7124    8.7087 O.2     1  UNL1       -0.1499
     26 C          61.0644   87.6307    9.0837 C.ar    1  UNL1        0.1547
     27 C          62.2300   86.6872    9.0531 C.ar    1  UNL1        0.0521
     28 C          62.1711   85.4495    8.2079 C.ar    1  UNL1        0.1416
     29 F          63.3368   84.5059    8.1773 F       1  UNL1       -0.2041
     30 C          60.9465   85.1553    7.3931 C.ar    1  UNL1        0.0320
     31 C          59.7808   86.0988    7.4237 C.ar    1  UNL1        0.0333
     32 C          59.8398   87.3365    8.2689 C.ar    1  UNL1        0.1590
     33 F          58.6742   88.2801    8.2995 F       1  UNL1       -0.2027
@<TRIPOS>BOND
     1    11    12    1
     2    12    13    2
     3    13    14    1
     4    14    15    2
     5    15    16    1
     6    16    17    2
     7    17    18    1
     8    18     9    1
     9     9    10    2
    10     9     1    1
    11     1     2   ar
    12     2     3    1
    13     2     4   ar
    14     4     5   ar
    15     5     6   ar
    16     6    21    1
    17    21    23    1
    18    23    24    2
    19    23    25    2
    20    23    26    1
    21    26    27   ar
    22    27    28   ar
    23    28    29    1
    24    28    30   ar
    25    30    31   ar
    26    31    32   ar
    27    32    33    1
    28     6     7   ar
    29     7     8    1
    30    18    19    2
    31    19    20    1
    32    20    12    1
    33    19    15    1
    34     7     1   ar
    35    32    26   ar
    36    21    22    1
@<TRIPOS>MOLECULE
*****
 33 36 0 0 0
SMALL
GASTEIGER

@<TRIPOS>ATOM
      1 C          63.9788   88.3314   15.5149 C.ar    1  UNL1        0.0951
      2 C          63.1304   88.7309   16.6856 C.ar    1  UNL1        0.1454
      3 F          62.8510   90.1809   16.9491 F       1  UNL1       -0.2040
      4 C          62.5615   87.6805   17.5928 C.ar    1  UNL1        0.0312
      5 C          62.8409   86.2305   17.3292 C.ar    1  UNL1        0.0204
      6 C          63.6893   85.8310   16.1585 C.ar    1  UNL1        0.0924
      7 C          64.2583   86.8814   15.2513 C.ar    1  UNL1        0.1598
      8 F          65.1067   86.4817   14.0806 F       1  UNL1       -0.2026
      9 C          64.5477   89.3817   14.6077 C.2     1  UNL1        0.2036
     10 O          65.7524   90.1677   15.0332 O.2     1  UNL1       -0.2863
     11 C          66.2226   94.1168   11.5149 C.3     1  UNL1        0.0307
     12 C          65.2666   92.9674   11.3918 C.2     1  UNL1        0.0074
     13 C          64.4018   92.8384   10.1730 C.2     1  UNL1        0.2278
     14 N          63.4459   91.6891   10.0499 N.2     1  UNL1       -0.0314
     15 C          63.3548   90.6687   11.1456 C.2     1  UNL1        0.3720
     16 N          62.5127   89.4374   11.3031 N.2     1  UNL1       -0.0307
     17 C          62.8570   88.8055   12.6191 C.2     1  UNL1        0.2390
     18 C          63.9120   89.6461   13.2751 C.2     1  UNL1        0.0896
     19 C          64.2196   90.7977   12.3643 C.2     1  UNL1        0.0771
     20 C          65.1755   91.9471   12.4874 C.3     1  UNL1        0.0602
     21 N          63.9688   84.3810   15.8949 N.pl3   1  UNL1       -0.2127
     22 H          64.2752   83.7978   16.6266 H       1  UNL1        0.1738
     23 S          63.7814   83.8195   14.5167 S.O2    1  UNL1        0.0759
     24 O          62.2968   83.9860   14.6506 O.2     1  UNL1       -0.1499
     25 O          65.2661   83.6529   14.3827 O.2     1  UNL1       -0.1499
     26 C          63.5941   83.2579   13.1383 C.ar    1  UNL1        0.1547
     27 C          63.7394   84.1481   11.9398 C.ar    1  UNL1        0.0521
     28 C          63.5521   83.5866   10.5615 C.ar    1  UNL1        0.1416
     29 F          63.6974   84.4768    9.3630 F       1  UNL1       -0.2041
     30 C          63.2196   82.1351   10.3818 C.ar    1  UNL1        0.0320
     31 C          63.0743   81.2449   11.5803 C.ar    1  UNL1        0.0333
     32 C          63.2616   81.8064   12.9586 C.ar    1  UNL1        0.1590
     33 F          63.1163   80.9163   14.1572 F       1  UNL1       -0.2027
@<TRIPOS>BOND
     1    11    12    1
     2    12    13    2
     3    13    14    1
     4    14    15    2
     5    15    16    1
     6    16    17    2
     7    17    18    1
     8    18     9    1
     9     9    10    2
    10     9     1    1
    11     1     2   ar
    12     2     3    1
    13     2     4   ar
    14     4     5   ar
    15     5     6   ar
    16     6    21    1
    17    21    23    1
    18    23    24    2
    19    23    25    2
    20    23    26    1
    21    26    27   ar
    22    27    28   ar
    23    28    29    1
    24    28    30   ar
    25    30    31   ar
    26    31    32   ar
    27    32    33    1
    28     6     7   ar
    29     7     8    1
    30    18    19    2
    31    19    20    1
    32    20    12    1
    33    19    15    1
    34     7     1   ar
    35    32    26   ar
    36    21    22    1
@<TRIPOS>MOLECULE
*****
 33 36 0 0 0
SMALL
GASTEIGER

@<TRIPOS>ATOM
      1 C          61.8995   86.4220   10.2529 C.ar    1  UNL1        0.0951
      2 C          60.8595   86.5634    9.1813 C.ar    1  UNL1        0.1454
      3 F          60.6616   85.4653    8.1788 F       1  UNL1       -0.2040
      4 C          60.0174   87.8027    9.1122 C.ar    1  UNL1        0.0312
      5 C          60.2153   88.9008   10.1148 C.ar    1  UNL1        0.0204
      6 C          61.2554   88.7594   11.1864 C.ar    1  UNL1        0.0924
      7 C          62.0975   87.5200   11.2555 C.ar    1  UNL1        0.1598
      8 F          63.1375   87.3787   12.3271 F       1  UNL1       -0.2026
      9 C          62.7416   85.1826   10.3219 C.2     1  UNL1        0.2036
     10 O          63.6068   84.7979    9.1585 O.2     1  UNL1       -0.2863
     11 C          62.9337   79.3148    9.7527 C.3     1  UNL1        0.0307
     12 C          62.8616   80.3421   10.8433 C.2     1  UNL1        0.0074
     13 C          62.8185   79.9100   12.2790 C.2     1  UNL1        0.2278
     14 N          62.7465   80.9373   13.3697 N.2     1  UNL1       -0.0314
     15 C          62.7176   82.3968   13.0245 C.2     1  UNL1        0.3720
     16 N          62.6488   83.6287   13.8775 N.2     1  UNL1       -0.0307
     17 C          62.6495   84.8223   12.9690 C.2     1  UNL1        0.2390
     18 C          62.7186   84.3280   11.5544 C.2     1  UNL1        0.0896
     19 C          62.7607   82.8289   11.5888 C.2     1  UNL1        0.0771
     20 C          62.8327   81.8016   10.4982 C.3     1  UNL1        0.0602
     21 N          61.4533   89.8575   12.1890 N.pl3   1  UNL1       -0.2127
     22 H          60.6960   90.1656   12.7375 H       1  UNL1        0.1738
     23 S          62.8049   90.4861   12.3558 S.O2    1  UNL1        0.0759
     24 O          62.8271   90.0573   13.7929 O.2     1  UNL1       -0.1499
     25 O          62.7828   90.9150   10.9186 O.2     1  UNL1       -0.1499
     26 C          64.1567   91.1148   12.5225 C.ar    1  UNL1        0.1547
     27 C          64.9444   90.8778   13.7768 C.ar    1  UNL1        0.0521
     28 C          66.2960   91.5064   13.9436 C.ar    1  UNL1        0.1416
     29 F          67.0837   91.2694   15.1979 F       1  UNL1       -0.2041
     30 C          66.8600   92.3721   12.8561 C.ar    1  UNL1        0.0320
     31 C          66.0722   92.6091   11.6018 C.ar    1  UNL1        0.0333
     32 C          64.7206   91.9804   11.4350 C.ar    1  UNL1        0.1590
     33 F          63.9328   92.2174   10.1807 F       1  UNL1       -0.2027
@<TRIPOS>BOND
     1    11    12    1
     2    12    13    2
     3    13    14    1
     4    14    15    2
     5    15    16    1
     6    16    17    2
     7    17    18    1
     8    18     9    1
     9     9    10    2
    10     9     1    1
    11     1     2   ar
    12     2     3    1
    13     2     4   ar
    14     4     5   ar
    15     5     6   ar
    16     6    21    1
    17    21    23    1
    18    23    24    2
    19    23    25    2
    20    23    26    1
    21    26    27   ar
    22    27    28   ar
    23    28    29    1
    24    28    30   ar
    25    30    31   ar
    26    31    32   ar
    27    32    33    1
    28     6     7   ar
    29     7     8    1
    30    18    19    2
    31    19    20    1
    32    20    12    1
    33    19    15    1
    34     7     1   ar
    35    32    26   ar
    36    21    22    1
@<TRIPOS>MOLECULE
*****
 33 36 0 0 0
SMALL
GASTEIGER

@<TRIPOS>ATOM
      1 C          63.3996   89.2286   12.7174 C.ar    1  UNL1        0.0951
      2 C          63.7471   90.3537   13.6466 C.ar    1  UNL1        0.1454
      3 F          63.6822   91.7723   13.1636 F       1  UNL1       -0.2040
      4 C          64.1593   90.0602   15.0586 C.ar    1  UNL1        0.0312
      5 C          64.2242   88.6415   15.5415 C.ar    1  UNL1        0.0204
      6 C          63.8767   87.5164   14.6123 C.ar    1  UNL1        0.0924
      7 C          63.4645   87.8099   13.2002 C.ar    1  UNL1        0.1598
      8 F          63.1171   86.6847   12.2711 F       1  UNL1       -0.2026
      9 C          62.9874   89.5221   11.3053 C.2     1  UNL1        0.2036
     10 O          63.8991   90.3013   10.4044 O.2     1  UNL1       -0.2863
     11 C          62.8492   84.9629    7.5655 C.3     1  UNL1        0.0307
     12 C          61.8912   85.8955    8.2456 C.2     1  UNL1        0.0074
     13 C          60.4164   85.7600    8.0079 C.2     1  UNL1        0.2278
     14 N          59.4583   86.6926    8.6880 N.2     1  UNL1       -0.0314
     15 C          59.9751   87.7606    9.6057 C.2     1  UNL1        0.3720
     16 N          59.2771   88.8172   10.4096 N.2     1  UNL1       -0.0307
     17 C          60.3206   89.6057   11.1442 C.2     1  UNL1        0.2390
     18 C          61.6634   89.0364   10.7942 C.2     1  UNL1        0.0896
     19 C          61.4499   87.8960    9.8434 C.2     1  UNL1        0.0771
     20 C          62.4080   86.9634    9.1633 C.3     1  UNL1        0.0602
     21 N          63.9416   86.0977   15.0952 N.pl3   1  UNL1       -0.2127
     22 H          64.1197   85.9086   16.0448 H       1  UNL1        0.1738
     23 S          63.7351   84.9671   14.1313 S.O2    1  UNL1        0.0759
     24 O          62.2543   85.0447   14.3574 O.2     1  UNL1       -0.1499
     25 O          65.2159   84.8895   13.9051 O.2     1  UNL1       -0.1499
     26 C          63.5286   83.8365   13.1673 C.ar    1  UNL1        0.1547
     27 C          64.1333   83.9003   11.7961 C.ar    1  UNL1        0.0521
     28 C          63.9268   82.7697   10.8321 C.ar    1  UNL1        0.1416
     29 F          64.5315   82.8335    9.4609 F       1  UNL1       -0.2041
     30 C          63.1158   81.5754   11.2394 C.ar    1  UNL1        0.0320
     31 C          62.5111   81.5117   12.6106 C.ar    1  UNL1        0.0333
     32 C          62.7176   82.6422   13.5746 C.ar    1  UNL1        0.1590
     33 F          62.1130   82.5786   14.9458 F       1  UNL1       -0.2027
@<TRIPOS>BOND
     1    11    12    1
     2    12    13    2
     3    13    14    1
     4    14    15    2
     5    15    16    1
     6    16    17    2
     7    17    18    1
     8    18     9    1
     9     9    10    2
    10     9     1    1
    11     1     2   ar
    12     2     3    1
    13     2     4   ar
    14     4     5   ar
    15     5     6   ar
    16     6    21    1
    17    21    23    1
    18    23    24    2
    19    23    25    2
    20    23    26    1
    21    26    27   ar
    22    27    28   ar
    23    28    29    1
    24    28    30   ar
    25    30    31   ar
    26    31    32   ar
    27    32    33    1
    28     6     7   ar
    29     7     8    1
    30    18    19    2
    31    19    20    1
    32    20    12    1
    33    19    15    1
    34     7     1   ar
    35    32    26   ar
    36    21    22    1
@<TRIPOS>MOLECULE
*****
 33 36 0 0 0
SMALL
GASTEIGER

@<TRIPOS>ATOM
      1 C          63.7904   88.5009   15.2652 C.ar    1  UNL1        0.0951
      2 C          63.0863   88.9135   16.5238 C.ar    1  UNL1        0.1454
      3 F          62.7108   90.3501   16.7366 F       1  UNL1       -0.2040
      4 C          62.7577   87.8896   17.5695 C.ar    1  UNL1        0.0312
      5 C          63.1332   86.4530   17.3568 C.ar    1  UNL1        0.0204
      6 C          63.8373   86.0404   16.0981 C.ar    1  UNL1        0.0924
      7 C          64.1659   87.0644   15.0524 C.ar    1  UNL1        0.1598
      8 F          64.8700   86.6517   13.7938 F       1  UNL1       -0.2026
      9 C          64.1190   89.5248   14.2195 C.2     1  UNL1        0.2036
     10 O          63.7029   89.3028   12.7956 O.2     1  UNL1       -0.2863
     11 C          65.4912   93.4366   10.0234 C.3     1  UNL1        0.0307
     12 C          65.6614   93.2611   11.5034 C.2     1  UNL1        0.0074
     13 C          66.3745   94.3088   12.3057 C.2     1  UNL1        0.2278
     14 N          66.5447   94.1334   13.7857 N.2     1  UNL1       -0.0314
     15 C          66.0018   92.9103   14.4633 C.2     1  UNL1        0.3720
     16 N          66.0175   92.4661   15.8959 N.2     1  UNL1       -0.0307
     17 C          65.3141   91.1438   15.9790 C.2     1  UNL1        0.2390
     18 C          64.8637   90.7708   14.5977 C.2     1  UNL1        0.0896
     19 C          65.2887   91.8626   13.6609 C.2     1  UNL1        0.0771
     20 C          65.1185   92.0380   12.1810 C.3     1  UNL1        0.0602
     21 N          64.2128   84.6039   15.8853 N.pl3   1  UNL1       -0.2127
     22 H          64.6336   84.0920   16.6135 H       1  UNL1        0.1738
     23 S          63.9472   83.9472   14.5632 S.O2    1  UNL1        0.0759
     24 O          65.4232   83.8553   14.3122 O.2     1  UNL1       -0.1499
     25 O          62.4712   84.0390   14.8140 O.2     1  UNL1       -0.1499
     26 C          63.6816   83.2904   13.2409 C.ar    1  UNL1        0.1547
     27 C          63.8638   84.0645   11.9691 C.ar    1  UNL1        0.0521
     28 C          63.5981   83.4078   10.6469 C.ar    1  UNL1        0.1416
     29 F          63.7804   84.1818    9.3750 F       1  UNL1       -0.2041
     30 C          63.1503   81.9771   10.5965 C.ar    1  UNL1        0.0320
     31 C          62.9680   81.2031   11.8684 C.ar    1  UNL1        0.0333
     32 C          63.2337   81.8597   13.1906 C.ar    1  UNL1        0.1590
     33 F          63.0515   81.0858   14.4625 F       1  UNL1       -0.2027
@<TRIPOS>BOND
     1    11    12    1
     2    12    13    2
     3    13    14    1
     4    14    15    2
     5    15    16    1
     6    16    17    2
     7    17    18    1
     8    18     9    1
     9     9    10    2
    10     9     1    1
    11     1     2   ar
    12     2     3    1
    13     2     4   ar
    14     4     5   ar
    15     5     6   ar
    16     6    21    1
    17    21    23    1
    18    23    24    2
    19    23    25    2
    20    23    26    1
    21    26    27   ar
    22    27    28   ar
    23    28    29    1
    24    28    30   ar
    25    30    31   ar
    26    31    32   ar
    27    32    33    1
    28     6     7   ar
    29     7     8    1
    30    18    19    2
    31    19    20    1
    32    20    12    1
    33    19    15    1
    34     7     1   ar
    35    32    26   ar
    36    21    22    1
