@<TRIPOS>MOLECULE
*****
 67 75 0 0 0
SMALL
GASTEIGER

@<TRIPOS>ATOM
      1 N          58.1558   95.2043   -6.0141 N.3     1  UNL1       -0.1862
      2 C          59.3540   95.1897   -6.9164 C.3     1  UNL1        0.1775
      3 C          60.7232   95.4199   -6.3487 C.2     1  UNL1        0.2452
      4 O          61.9214   95.4052   -7.2510 O.2     1  UNL1       -0.2732
      5 N          60.8943   95.6647   -4.8788 N.am    1  UNL1       -0.2541
      6 C          62.2635   95.8949   -4.3111 C.3     1  UNL1        0.1577
      7 C          62.4345   96.1397   -2.8412 C.2     1  UNL1        0.2445
      8 O          63.8038   96.3699   -2.2735 O.2     1  UNL1       -0.2731
      9 N          61.2363   96.1544   -1.9388 N.am    1  UNL1       -0.2705
     10 C          59.8671   95.9242   -2.5065 C.3     1  UNL1        0.1359
     11 C          59.6961   95.6793   -3.9765 C.3     1  UNL1        0.1908
     12 N          58.3269   95.4492   -4.5442 N.am    1  UNL1       -0.1863
     13 C          57.1287   95.4638   -3.6418 C.2     1  UNL1        0.3191
     14 O          57.2997   95.7086   -2.1719 O.2     1  UNL1       -0.2512
     15 N          55.7594   95.2336   -4.2095 N.am    1  UNL1       -0.2836
     16 H          55.6472   95.0730   -5.1743 H       1  UNL1        0.1513
     17 C          56.7866   94.9742   -6.5818 C.3     1  UNL1        0.1188
     18 C          56.4853   92.3973   -6.4449 C.2     1  UNL1       -0.0034
     19 C          56.4582   93.6678   -7.2417 C.2     1  UNL1       -0.0071
     20 C          63.4617   95.8802   -5.2134 C.3     1  UNL1        0.0556
     21 C          64.1044   94.5770   -5.5855 C.ar    1  UNL1       -0.0198
     22 C          65.3203   94.5643   -6.4638 C.ar    1  UNL1       -0.0011
     23 C          65.9630   93.2610   -6.8360 C.ar    1  UNL1        0.0363
     24 C          65.3899   91.9706   -6.3298 C.ar    1  UNL1        0.1337
     25 O          66.0326   90.6674   -6.7020 O.3     1  UNL1       -0.5055
     26 C          64.1739   91.9833   -5.4515 C.ar    1  UNL1        0.0363
     27 C          63.5312   93.2865   -5.0794 C.ar    1  UNL1       -0.0011
     28 H          66.7922   90.6594   -7.2507 H       1  UNL1        0.2922
     29 C          61.4074   96.3992   -0.4689 C.3     1  UNL1        0.1217
     30 C          62.1082   95.3835    0.3841 C.ar    1  UNL1        0.0135
     31 C          63.5933   95.2056    0.2710 C.ar    1  UNL1       -0.0012
     32 C          64.2940   94.1901    1.1239 C.ar    1  UNL1       -0.0002
     33 C          63.5097   93.3524    2.0899 C.ar    1  UNL1        0.0016
     34 C          62.0246   93.5303    2.2030 C.ar    1  UNL1        0.0214
     35 C          60.9950   92.8543    3.0590 C.ar    1  UNL1        0.0722
     36 C          59.6579   93.4520    2.7352 C.ar    1  UNL1        0.0805
     37 N          59.8612   94.4975    1.6790 N.ar    1  UNL1       -0.3241
     38 C          58.7898   95.3456    1.0603 C.3     1  UNL1        0.1305
     39 C          61.3238   94.5459    1.3501 C.ar    1  UNL1        0.0577
     40 C          61.2566   91.7706    4.0628 C.2     1  UNL1        0.2510
     41 O          62.5033   90.9423    3.9645 O.2     1  UNL1       -0.2698
     42 N          60.2716   91.5153    5.1648 N.am    1  UNL1       -0.2791
     43 H          59.4533   92.0590    5.2293 H       1  UNL1        0.1552
     44 C          60.5331   90.4318    6.1685 C.ar    1  UNL1        0.0701
     45 C          59.9289   89.0720    5.9787 C.ar    1  UNL1        0.0191
     46 C          60.1903   87.9884    6.9824 C.ar    1  UNL1        0.0356
     47 C          61.0560   88.2646    8.1758 C.ar    1  UNL1        0.1319
     48 N          61.6603   89.6243    8.3656 N.ar    1  UNL1       -0.2279
     49 C          61.3988   90.7079    7.3619 C.ar    1  UNL1        0.1149
     50 N          61.3176   87.1810    9.1795 N.pl3   1  UNL1       -0.2904
     51 C          60.7707   86.8340   10.5325 C.3     1  UNL1        0.1098
     52 C          61.6874   85.6486   10.5991 C.3     1  UNL1        0.0974
     53 C          62.2343   85.9955    9.2462 C.3     1  UNL1        0.1098
     54 N          61.9489   84.5651   11.6028 N.3     1  UNL1       -0.2686
     55 C          62.0250   84.8982   13.0634 C.3     1  UNL1        0.0897
     56 C          62.2865   83.8147   14.0672 C.3     1  UNL1        0.0897
     57 N          62.4720   82.3980   13.6105 N.3     1  UNL1       -0.2691
     58 C          62.7335   81.3145   14.6142 C.3     1  UNL1        0.0897
     59 C          62.3959   82.0648   12.1499 C.3     1  UNL1        0.0897
     60 C          62.1344   83.1484   11.1461 C.3     1  UNL1        0.0897
     61 C          54.5613   95.2483   -3.3072 C.3     1  UNL1        0.1177
     62 C          53.2524   95.7838   -3.8073 C.ar    1  UNL1       -0.0025
     63 C          53.1021   96.1718   -5.2483 C.ar    1  UNL1       -0.0026
     64 C          51.7932   96.7073   -5.7484 C.ar    1  UNL1       -0.0003
     65 C          50.6345   96.8547   -4.8073 C.ar    1  UNL1       -0.0000
     66 C          50.7847   96.4667   -3.3661 C.ar    1  UNL1       -0.0003
     67 C          52.0936   95.9312   -2.8661 C.ar    1  UNL1       -0.0026
@<TRIPOS>BOND
     1    18    19    2
     2    19    17    1
     3    17     1    1
     4     1     2    1
     5     2     3    1
     6     3     4    2
     7     3     5   am
     8     5     6    1
     9     6    20    1
    10    20    21    1
    11    21    22   ar
    12    22    23   ar
    13    23    24   ar
    14    24    25    1
    15    24    26   ar
    16    26    27   ar
    17     6     7    1
    18     7     8    2
    19     7     9   am
    20     9    29    1
    21    29    30    1
    22    30    31   ar
    23    31    32   ar
    24    32    33   ar
    25    33    34   ar
    26    34    35   ar
    27    35    40    1
    28    40    41    2
    29    40    42   am
    30    42    44    1
    31    44    45   ar
    32    45    46   ar
    33    46    47   ar
    34    47    50    1
    35    50    51    1
    36    51    52    1
    37    52    54    1
    38    54    55    1
    39    55    56    1
    40    56    57    1
    41    57    58    1
    42    57    59    1
    43    59    60    1
    44    52    53    1
    45    47    48   ar
    46    48    49   ar
    47    35    36   ar
    48    36    37   ar
    49    37    38    1
    50    37    39   ar
    51     9    10    1
    52    11    10    1
    53    11    12    1
    54    12    13   am
    55    13    14    2
    56    13    15   am
    57    15    61    1
    58    61    62    1
    59    62    63   ar
    60    63    64   ar
    61    64    65   ar
    62    65    66   ar
    63    66    67   ar
    64    12     1    1
    65    67    62   ar
    66    11     5    1
    67    27    21   ar
    68    39    30   ar
    69    39    34   ar
    70    49    44   ar
    71    53    50    1
    72    60    54    1
    73    25    28    1
    74    42    43    1
    75    15    16    1
@<TRIPOS>MOLECULE
*****
 67 75 0 0 0
SMALL
GASTEIGER

@<TRIPOS>ATOM
      1 N          65.8483   89.6762   14.1864 N.3     1  UNL1       -0.1862
      2 C          66.2643   88.4854   14.9982 C.3     1  UNL1        0.1775
      3 C          65.4434   87.2304   14.9637 C.2     1  UNL1        0.2452
      4 O          65.8594   86.0396   15.7755 O.2     1  UNL1       -0.2732
      5 N          64.2065   87.1663   14.1176 N.am    1  UNL1       -0.2541
      6 C          63.3856   85.9113   14.0831 C.3     1  UNL1        0.1577
      7 C          62.1487   85.8472   13.2370 C.2     1  UNL1        0.2445
      8 O          61.3278   84.5922   13.2025 O.2     1  UNL1       -0.2731
      9 N          61.7327   87.0380   12.4252 N.am    1  UNL1       -0.2705
     10 C          62.5536   88.2930   12.4597 C.3     1  UNL1        0.1359
     11 C          63.7906   88.3571   13.3059 C.3     1  UNL1        0.1908
     12 N          64.6115   89.6120   13.3403 N.am    1  UNL1       -0.1863
     13 C          64.1954   90.8029   12.5285 C.2     1  UNL1        0.3191
     14 O          62.9586   90.7387   11.6824 O.2     1  UNL1       -0.2512
     15 N          65.0164   92.0578   12.5630 N.am    1  UNL1       -0.2836
     16 H          65.8282   92.0999   13.1184 H       1  UNL1        0.1513
     17 C          66.6692   90.9311   14.2209 C.3     1  UNL1        0.1188
     18 C          67.7955   92.7345   15.7139 C.2     1  UNL1       -0.0034
     19 C          66.6491   91.8074   15.4381 C.2     1  UNL1       -0.0071
     20 C          63.8016   84.7205   14.8948 C.3     1  UNL1        0.0556
     21 C          63.4659   83.3368   14.4229 C.ar    1  UNL1       -0.0198
     22 C          64.3832   82.6252   13.4732 C.ar    1  UNL1       -0.0011
     23 C          64.0476   81.2415   13.0012 C.ar    1  UNL1        0.0363
     24 C          62.7945   80.5694   13.4790 C.ar    1  UNL1        0.1337
     25 O          62.4589   79.1858   13.0070 O.3     1  UNL1       -0.5055
     26 C          61.8771   81.2811   14.4287 C.ar    1  UNL1        0.0363
     27 C          62.2128   82.6648   14.9007 C.ar    1  UNL1       -0.0011
     28 H          63.0319   78.7412   12.4138 H       1  UNL1        0.2922
     29 C          60.4959   86.9739   11.5791 C.3     1  UNL1        0.1217
     30 C          60.6024   87.0739   10.0862 C.ar    1  UNL1        0.0135
     31 C          61.0585   85.8901    9.2858 C.ar    1  UNL1       -0.0012
     32 C          61.1651   85.9901    7.7930 C.ar    1  UNL1       -0.0002
     33 C          60.8155   87.2738    7.1005 C.ar    1  UNL1        0.0016
     34 C          60.3593   88.4577    7.9008 C.ar    1  UNL1        0.0214
     35 C          59.9498   89.8435    7.4987 C.ar    1  UNL1        0.0722
     36 C          59.5902   90.6000    8.7430 C.ar    1  UNL1        0.0805
     37 N          59.7775   89.6817    9.9141 N.ar    1  UNL1       -0.3241
     38 C          59.5324   90.0269   11.3531 C.3     1  UNL1        0.1305
     39 C          60.2528   88.3577    9.3937 C.ar    1  UNL1        0.0577
     40 C          59.9074   90.3789    6.0980 C.2     1  UNL1        0.2510
     41 O          58.8024   89.9673    5.1710 O.2     1  UNL1       -0.2698
     42 N          60.9701   91.3258    5.6246 N.am    1  UNL1       -0.2791
     43 H          61.6953   91.5959    6.2331 H       1  UNL1        0.1552
     44 C          60.9277   91.8611    4.2240 C.ar    1  UNL1        0.0701
     45 C          59.7258   92.6221    3.7481 C.ar    1  UNL1        0.0191
     46 C          59.6834   93.1575    2.3476 C.ar    1  UNL1        0.0356
     47 C          60.8428   92.9320    1.4230 C.ar    1  UNL1        0.1319
     48 N          62.0447   92.1710    1.8989 N.ar    1  UNL1       -0.2279
     49 C          62.0871   91.6356    3.2994 C.ar    1  UNL1        0.1149
     50 N          60.8005   93.4673    0.0224 N.pl3   1  UNL1       -0.2904
     51 C          61.0852   92.9030   -1.3379 C.3     1  UNL1        0.1098
     52 C          60.7406   94.2244   -1.9583 C.3     1  UNL1        0.0974
     53 C          60.4559   94.7888   -0.5981 C.3     1  UNL1        0.1098
     54 N          60.6982   94.7597   -3.3589 N.3     1  UNL1       -0.2686
     55 C          61.9572   95.2438   -4.0152 C.3     1  UNL1        0.0897
     56 C          61.9150   95.7792   -5.4157 C.3     1  UNL1        0.0897
     57 N          60.6137   95.8306   -6.1601 N.3     1  UNL1       -0.2691
     58 C          60.5714   96.3659   -7.5606 C.3     1  UNL1        0.0897
     59 C          59.3547   95.3466   -5.5038 C.3     1  UNL1        0.0897
     60 C          59.3970   94.8111   -4.1032 C.3     1  UNL1        0.0897
     61 C          64.6004   93.2487   11.7513 C.3     1  UNL1        0.1177
     62 C          65.5669   93.8766   10.7912 C.ar    1  UNL1       -0.0025
     63 C          65.4769   95.3428   10.4879 C.ar    1  UNL1       -0.0026
     64 C          66.4434   95.9707    9.5278 C.ar    1  UNL1       -0.0003
     65 C          67.4998   95.1324    8.8712 C.ar    1  UNL1       -0.0000
     66 C          67.5897   93.6661    9.1745 C.ar    1  UNL1       -0.0003
     67 C          66.6233   93.0382   10.1346 C.ar    1  UNL1       -0.0026
@<TRIPOS>BOND
     1    18    19    2
     2    19    17    1
     3    17     1    1
     4     1     2    1
     5     2     3    1
     6     3     4    2
     7     3     5   am
     8     5     6    1
     9     6    20    1
    10    20    21    1
    11    21    22   ar
    12    22    23   ar
    13    23    24   ar
    14    24    25    1
    15    24    26   ar
    16    26    27   ar
    17     6     7    1
    18     7     8    2
    19     7     9   am
    20     9    29    1
    21    29    30    1
    22    30    31   ar
    23    31    32   ar
    24    32    33   ar
    25    33    34   ar
    26    34    35   ar
    27    35    40    1
    28    40    41    2
    29    40    42   am
    30    42    44    1
    31    44    45   ar
    32    45    46   ar
    33    46    47   ar
    34    47    50    1
    35    50    51    1
    36    51    52    1
    37    52    54    1
    38    54    55    1
    39    55    56    1
    40    56    57    1
    41    57    58    1
    42    57    59    1
    43    59    60    1
    44    52    53    1
    45    47    48   ar
    46    48    49   ar
    47    35    36   ar
    48    36    37   ar
    49    37    38    1
    50    37    39   ar
    51     9    10    1
    52    11    10    1
    53    11    12    1
    54    12    13   am
    55    13    14    2
    56    13    15   am
    57    15    61    1
    58    61    62    1
    59    62    63   ar
    60    63    64   ar
    61    64    65   ar
    62    65    66   ar
    63    66    67   ar
    64    12     1    1
    65    67    62   ar
    66    11     5    1
    67    27    21   ar
    68    39    30   ar
    69    39    34   ar
    70    49    44   ar
    71    53    50    1
    72    60    54    1
    73    25    28    1
    74    42    43    1
    75    15    16    1
