@<TRIPOS>MOLECULE
*****
 26 27 0 0 0
SMALL
GASTEIGER

@<TRIPOS>ATOM
      1 C          61.3882   88.1393   10.1969 C.2     1  UNL1        0.1957
      2 O          60.3403   88.3636    9.1473 O.2     1  UNL1       -0.2866
      3 C          62.6907   86.0564   11.0423 C.2     1  UNL1        0.0033
      4 C          61.4199   86.8492   10.9614 C.2     1  UNL1        0.0420
      5 C          62.9644   80.8678   11.1041 C.3     1  UNL1        0.0342
      6 C          62.8592   82.1720   11.8377 C.ar    1  UNL1        0.0115
      7 C          62.8276   83.4621   11.0732 C.ar    1  UNL1       -0.0013
      8 C          62.7224   84.7662   11.8069 C.ar    1  UNL1       -0.0003
      9 C          62.6489   84.7802   13.3050 C.ar    1  UNL1       -0.0013
     10 C          62.6806   83.4900   14.0694 C.ar    1  UNL1        0.0115
     11 C          62.6072   83.5040   15.5676 C.3     1  UNL1        0.0342
     12 C          62.7858   82.1859   13.3358 C.ar    1  UNL1        0.1256
     13 O          62.8174   80.8957   14.1004 O.3     1  UNL1       -0.5061
     14 H          62.7716   80.9045   15.0362 H       1  UNL1        0.2922
     15 C          62.4044   89.2052   10.4819 C.2     1  UNL1        0.0420
     16 C          62.7647   89.5381   11.8995 C.2     1  UNL1        0.0033
     17 C          63.7809   90.6040   12.1845 C.ar    1  UNL1       -0.0003
     18 C          64.4010   90.7040   13.5468 C.ar    1  UNL1       -0.0013
     19 C          65.4171   91.7699   13.8318 C.ar    1  UNL1        0.0115
     20 C          66.0372   91.8700   15.1939 C.3     1  UNL1        0.0342
     21 C          65.8133   92.7358   12.7546 C.ar    1  UNL1        0.1256
     22 O          66.8295   93.8017   13.0396 O.3     1  UNL1       -0.5061
     23 C          65.1932   92.6357   11.3924 C.ar    1  UNL1        0.0115
     24 C          65.5894   93.6015   10.3153 C.3     1  UNL1        0.0342
     25 C          64.1771   91.5698   11.1074 C.ar    1  UNL1       -0.0013
     26 H          67.2168   93.8642   13.8905 H       1  UNL1        0.2922
@<TRIPOS>BOND
     1     5     6    1
     2     6     7   ar
     3     7     8   ar
     4     8     3    1
     5     3     4    2
     6     4     1    1
     7     1     2    2
     8     1    15    1
     9    15    16    2
    10    16    17    1
    11    17    18   ar
    12    18    19   ar
    13    19    20    1
    14    19    21   ar
    15    21    22    1
    16    21    23   ar
    17    23    24    1
    18    23    25   ar
    19     8     9   ar
    20     9    10   ar
    21    10    11    1
    22    10    12   ar
    23    12    13    1
    24    12     6   ar
    25    25    17   ar
    26    22    26    1
    27    13    14    1
@<TRIPOS>MOLECULE
*****
 26 27 0 0 0
SMALL
GASTEIGER

@<TRIPOS>ATOM
      1 C          61.3654   88.1761   10.2878 C.2     1  UNL1        0.1957
      2 O          60.3050   88.3904    9.2487 O.2     1  UNL1       -0.2866
      3 C          62.8027   89.5374   11.9703 C.2     1  UNL1        0.0033
      4 C          62.3755   89.2507   10.5613 C.2     1  UNL1        0.0420
      5 C          66.0617   91.9233   15.2393 C.3     1  UNL1        0.0342
      6 C          65.4423   91.8050   13.8783 C.ar    1  UNL1        0.0115
      7 C          64.4322   90.7304   13.6048 C.ar    1  UNL1       -0.0013
      8 C          63.8128   90.6121   12.2438 C.ar    1  UNL1       -0.0003
      9 C          64.2035   91.5685   11.1563 C.ar    1  UNL1       -0.0013
     10 C          65.2135   92.6432   11.4298 C.ar    1  UNL1        0.0115
     11 C          65.6042   93.5996   10.3423 C.3     1  UNL1        0.0342
     12 C          65.8330   92.7614   12.7908 C.ar    1  UNL1        0.1256
     13 O          66.8431   93.8361   13.0643 O.3     1  UNL1       -0.5061
     14 H          67.0871   94.4336   12.3849 H       1  UNL1        0.2922
     15 C          61.4157   86.8871   11.0533 C.2     1  UNL1        0.0420
     16 C          62.6657   86.0580   11.0448 C.2     1  UNL1        0.0033
     17 C          62.7160   84.7690   11.8103 C.ar    1  UNL1       -0.0003
     18 C          62.6493   84.7836   13.3088 C.ar    1  UNL1       -0.0013
     19 C          62.6996   83.4947   14.0743 C.ar    1  UNL1        0.0115
     20 C          62.6329   83.5092   15.5727 C.3     1  UNL1        0.0342
     21 C          62.8166   82.1911   13.3414 C.ar    1  UNL1        0.1256
     22 O          62.8669   80.9022   14.1069 O.3     1  UNL1       -0.5061
     23 C          62.8833   82.1766   11.8430 C.ar    1  UNL1        0.0115
     24 C          63.0003   80.8731   11.1101 C.3     1  UNL1        0.0342
     25 C          62.8330   83.4655   11.0774 C.ar    1  UNL1       -0.0013
     26 H          62.8252   80.9113   15.0429 H       1  UNL1        0.2922
@<TRIPOS>BOND
     1     5     6    1
     2     6     7   ar
     3     7     8   ar
     4     8     3    1
     5     3     4    2
     6     4     1    1
     7     1     2    2
     8     1    15    1
     9    15    16    2
    10    16    17    1
    11    17    18   ar
    12    18    19   ar
    13    19    20    1
    14    19    21   ar
    15    21    22    1
    16    21    23   ar
    17    23    24    1
    18    23    25   ar
    19     8     9   ar
    20     9    10   ar
    21    10    11    1
    22    10    12   ar
    23    12    13    1
    24    12     6   ar
    25    25    17   ar
    26    22    26    1
    27    13    14    1
@<TRIPOS>MOLECULE
*****
 26 27 0 0 0
SMALL
GASTEIGER

@<TRIPOS>ATOM
      1 C          61.3617   88.1614   10.2480 C.2     1  UNL1        0.1957
      2 O          60.3011   88.3847    9.2109 O.2     1  UNL1       -0.2866
      3 C          62.6707   86.0639   11.0462 C.2     1  UNL1        0.0033
      4 C          61.4060   86.8697   11.0093 C.2     1  UNL1        0.0420
      5 C          62.6197   83.5002   15.5656 C.3     1  UNL1        0.0342
      6 C          62.6895   83.4904   14.0672 C.ar    1  UNL1        0.0115
      7 C          62.6452   84.7820   13.3059 C.ar    1  UNL1       -0.0013
      8 C          62.7150   84.7722   11.8075 C.ar    1  UNL1       -0.0003
      9 C          62.8292   83.4708   11.0705 C.ar    1  UNL1       -0.0013
     10 C          62.8735   82.1792   11.8319 C.ar    1  UNL1        0.0115
     11 C          62.9876   80.8776   11.0949 C.3     1  UNL1        0.0342
     12 C          62.8036   82.1890   13.3302 C.ar    1  UNL1        0.1256
     13 O          62.8480   80.8972   14.0915 O.3     1  UNL1       -0.5061
     14 H          62.9193   80.0843   13.6311 H       1  UNL1        0.2922
     15 C          62.3777   89.2298   10.5238 C.2     1  UNL1        0.0420
     16 C          62.7762   89.5392   11.9365 C.2     1  UNL1        0.0033
     17 C          63.7923   90.6076   12.2122 C.ar    1  UNL1       -0.0003
     18 C          64.4110   90.7206   13.5741 C.ar    1  UNL1       -0.0013
     19 C          65.4271   91.7890   13.8499 C.ar    1  UNL1        0.0115
     20 C          66.0458   91.9021   15.2116 C.3     1  UNL1        0.0342
     21 C          65.8245   92.7444   12.7638 C.ar    1  UNL1        0.1256
     22 O          66.8406   93.8128   13.0396 O.3     1  UNL1       -0.5061
     23 C          65.2058   92.6313   11.4021 C.ar    1  UNL1        0.0115
     24 C          65.6032   93.5866   10.3161 C.3     1  UNL1        0.0342
     25 C          64.1897   91.5629   11.1263 C.ar    1  UNL1       -0.0013
     26 H          67.2271   93.8834   13.8902 H       1  UNL1        0.2922
@<TRIPOS>BOND
     1     5     6    1
     2     6     7   ar
     3     7     8   ar
     4     8     3    1
     5     3     4    2
     6     4     1    1
     7     1     2    2
     8     1    15    1
     9    15    16    2
    10    16    17    1
    11    17    18   ar
    12    18    19   ar
    13    19    20    1
    14    19    21   ar
    15    21    22    1
    16    21    23   ar
    17    23    24    1
    18    23    25   ar
    19     8     9   ar
    20     9    10   ar
    21    10    11    1
    22    10    12   ar
    23    12    13    1
    24    12     6   ar
    25    25    17   ar
    26    22    26    1
    27    13    14    1
@<TRIPOS>MOLECULE
*****
 26 27 0 0 0
SMALL
GASTEIGER

@<TRIPOS>ATOM
      1 C          61.3405   88.1552   10.2330 C.2     1  UNL1        0.1957
      2 O          60.2699   88.3950    9.2100 O.2     1  UNL1       -0.2866
      3 C          62.7387   89.5528   11.9188 C.2     1  UNL1        0.0033
      4 C          62.3680   89.2135   10.5054 C.2     1  UNL1        0.0420
      5 C          65.5968   93.5751   10.2902 C.3     1  UNL1        0.0342
      6 C          65.1953   92.6222   11.3769 C.ar    1  UNL1        0.0115
      7 C          64.1678   91.5640   11.1045 C.ar    1  UNL1       -0.0013
      8 C          63.7663   90.6111   12.1912 C.ar    1  UNL1       -0.0003
      9 C          64.3923   90.7165   13.5502 C.ar    1  UNL1       -0.0013
     10 C          65.4198   91.7748   13.8225 C.ar    1  UNL1        0.0115
     11 C          66.0459   91.8802   15.1816 C.3     1  UNL1        0.0342
     12 C          65.8213   92.7276   12.7359 C.ar    1  UNL1        0.1256
     13 O          66.8489   93.7859   13.0083 O.3     1  UNL1       -0.5061
     14 H          67.2400   93.8517   13.8572 H       1  UNL1        0.2922
     15 C          61.3835   86.8572   10.9835 C.2     1  UNL1        0.0420
     16 C          62.6666   86.0854   11.0741 C.2     1  UNL1        0.0033
     17 C          62.7095   84.7873   11.8245 C.ar    1  UNL1       -0.0003
     18 C          62.8240   83.4921   11.0767 C.ar    1  UNL1       -0.0013
     19 C          62.8670   82.1940   11.8271 C.ar    1  UNL1        0.0115
     20 C          62.9814   80.8988   11.0793 C.3     1  UNL1        0.0342
     21 C          62.7955   82.1912   13.3255 C.ar    1  UNL1        0.1256
     22 O          62.8385   80.8932   14.0760 O.3     1  UNL1       -0.5061
     23 C          62.6811   83.4864   14.0733 C.ar    1  UNL1        0.0115
     24 C          62.6097   83.4836   15.5715 C.3     1  UNL1        0.0342
     25 C          62.6381   84.7845   13.3228 C.ar    1  UNL1       -0.0013
     26 H          62.9100   80.0841   13.6088 H       1  UNL1        0.2922
@<TRIPOS>BOND
     1     5     6    1
     2     6     7   ar
     3     7     8   ar
     4     8     3    1
     5     3     4    2
     6     4     1    1
     7     1     2    2
     8     1    15    1
     9    15    16    2
    10    16    17    1
    11    17    18   ar
    12    18    19   ar
    13    19    20    1
    14    19    21   ar
    15    21    22    1
    16    21    23   ar
    17    23    24    1
    18    23    25   ar
    19     8     9   ar
    20     9    10   ar
    21    10    11    1
    22    10    12   ar
    23    12    13    1
    24    12     6   ar
    25    25    17   ar
    26    22    26    1
    27    13    14    1
@<TRIPOS>MOLECULE
*****
 26 27 0 0 0
SMALL
GASTEIGER

@<TRIPOS>ATOM
      1 C          64.9558   91.1349   14.7941 C.2     1  UNL1        0.1957
      2 O          64.4590   91.8103   16.0380 O.2     1  UNL1       -0.2866
      3 C          65.1253   92.3343   12.4957 C.2     1  UNL1        0.0033
      4 C          65.7556   91.9092   13.7887 C.2     1  UNL1        0.0420
      5 C          68.6663   92.4589    8.6950 C.3     1  UNL1        0.0342
      6 C          67.6957   93.1708    9.5899 C.ar    1  UNL1        0.0115
      7 C          66.8958   92.3966   10.5953 C.ar    1  UNL1       -0.0013
      8 C          65.9252   93.1086   11.4903 C.ar    1  UNL1       -0.0003
      9 C          65.7544   94.5947   11.3799 C.ar    1  UNL1       -0.0013
     10 C          66.5543   95.3689   10.3746 C.ar    1  UNL1        0.0115
     11 C          66.3835   96.8551   10.2641 C.3     1  UNL1        0.0342
     12 C          67.5249   94.6569    9.4796 C.ar    1  UNL1        0.1256
     13 O          68.3248   95.4312    8.4742 O.3     1  UNL1       -0.5061
     14 H          68.2181   96.3596    8.4052 H       1  UNL1        0.2922
     15 C          64.6527   89.6853   14.5557 C.2     1  UNL1        0.0420
     16 C          63.8925   89.2696   13.3312 C.2     1  UNL1        0.0033
     17 C          63.5894   87.8200   13.0928 C.ar    1  UNL1       -0.0003
     18 C          62.7693   87.4107   11.9054 C.ar    1  UNL1       -0.0013
     19 C          62.4662   85.9611   11.6670 C.ar    1  UNL1        0.0115
     20 C          61.6461   85.5517   10.4797 C.3     1  UNL1        0.0342
     21 C          62.9833   84.9208   12.6160 C.ar    1  UNL1        0.1256
     22 O          62.6802   83.4712   12.3776 O.3     1  UNL1       -0.5061
     23 C          63.8034   85.3302   13.8034 C.ar    1  UNL1        0.0115
     24 C          64.3204   84.2899   14.7523 C.3     1  UNL1        0.0342
     25 C          64.1065   86.7798   14.0418 C.ar    1  UNL1       -0.0013
     26 H          62.1679   83.2155   11.6359 H       1  UNL1        0.2922
@<TRIPOS>BOND
     1     5     6    1
     2     6     7   ar
     3     7     8   ar
     4     8     3    1
     5     3     4    2
     6     4     1    1
     7     1     2    2
     8     1    15    1
     9    15    16    2
    10    16    17    1
    11    17    18   ar
    12    18    19   ar
    13    19    20    1
    14    19    21   ar
    15    21    22    1
    16    21    23   ar
    17    23    24    1
    18    23    25   ar
    19     8     9   ar
    20     9    10   ar
    21    10    11    1
    22    10    12   ar
    23    12    13    1
    24    12     6   ar
    25    25    17   ar
    26    22    26    1
    27    13    14    1
@<TRIPOS>MOLECULE
*****
 26 27 0 0 0
SMALL
GASTEIGER

@<TRIPOS>ATOM
      1 C          61.2284   88.2183   10.4043 C.2     1  UNL1        0.1957
      2 O          60.0871   88.5103    9.4758 O.2     1  UNL1       -0.2866
      3 C          62.6101   86.1532   11.1634 C.2     1  UNL1        0.0033
      4 C          61.3068   86.8933   11.1029 C.2     1  UNL1        0.0420
      5 C          63.0786   80.9820   10.9647 C.3     1  UNL1        0.0342
      6 C          62.9227   82.2425   11.7627 C.ar    1  UNL1        0.0115
      7 C          62.8444   83.5676   11.0641 C.ar    1  UNL1       -0.0013
      8 C          62.6885   84.8281   11.8621 C.ar    1  UNL1       -0.0003
      9 C          62.6108   84.7636   13.3587 C.ar    1  UNL1       -0.0013
     10 C          62.6892   83.4385   14.0572 C.ar    1  UNL1        0.0115
     11 C          62.6115   83.3739   15.5539 C.3     1  UNL1        0.0342
     12 C          62.8451   82.1780   13.2592 C.ar    1  UNL1        0.1256
     13 O          62.9234   80.8529   13.9579 O.3     1  UNL1       -0.5061
     14 H          62.8749   80.8126   14.8927 H       1  UNL1        0.2922
     15 C          62.2914   89.2514   10.6342 C.2     1  UNL1        0.0420
     16 C          62.6985   89.6103   12.0326 C.2     1  UNL1        0.0033
     17 C          63.7615   90.6434   12.2624 C.ar    1  UNL1       -0.0003
     18 C          64.1507   91.5782   11.1557 C.ar    1  UNL1       -0.0013
     19 C          65.2136   92.6113   11.3856 C.ar    1  UNL1        0.0115
     20 C          65.6028   93.5460   10.2789 C.3     1  UNL1        0.0342
     21 C          65.8874   92.7096   12.7222 C.ar    1  UNL1        0.1256
     22 O          66.9504   93.7427   12.9520 O.3     1  UNL1       -0.5061
     23 C          65.4982   91.7748   13.8288 C.ar    1  UNL1        0.0115
     24 C          66.1720   91.8731   15.1653 C.3     1  UNL1        0.0342
     25 C          64.4353   90.7417   13.5989 C.ar    1  UNL1       -0.0013
     26 H          67.1935   94.3266   12.2607 H       1  UNL1        0.2922
@<TRIPOS>BOND
     1     5     6    1
     2     6     7   ar
     3     7     8   ar
     4     8     3    1
     5     3     4    2
     6     4     1    1
     7     1     2    2
     8     1    15    1
     9    15    16    2
    10    16    17    1
    11    17    18   ar
    12    18    19   ar
    13    19    20    1
    14    19    21   ar
    15    21    22    1
    16    21    23   ar
    17    23    24    1
    18    23    25   ar
    19     8     9   ar
    20     9    10   ar
    21    10    11    1
    22    10    12   ar
    23    12    13    1
    24    12     6   ar
    25    25    17   ar
    26    22    26    1
    27    13    14    1
@<TRIPOS>MOLECULE
*****
 26 27 0 0 0
SMALL
GASTEIGER

@<TRIPOS>ATOM
      1 C          63.9350   87.1395   15.3048 C.2     1  UNL1        0.1957
      2 O          63.2398   87.0158   16.6283 O.2     1  UNL1       -0.2866
      3 C          63.9840   89.4109   14.0445 C.2     1  UNL1        0.0033
      4 C          64.6451   88.4113   14.9466 C.2     1  UNL1        0.0420
      5 C          67.1575   93.3135   15.3479 C.3     1  UNL1        0.0342
      6 C          66.2809   92.6340   14.3380 C.ar    1  UNL1        0.0115
      7 C          65.5708   91.3622   14.6962 C.ar    1  UNL1       -0.0013
      8 C          64.6942   90.6827   13.6863 C.ar    1  UNL1       -0.0003
      9 C          64.5278   91.2749   12.3183 C.ar    1  UNL1       -0.0013
     10 C          65.2379   92.5466   11.9601 C.ar    1  UNL1        0.0115
     11 C          65.0715   93.1389   10.5920 C.3     1  UNL1        0.0342
     12 C          66.1145   93.2262   12.9700 C.ar    1  UNL1        0.1256
     13 O          66.8247   94.4980   12.6118 O.3     1  UNL1       -0.5061
     14 H          66.7207   94.8679   11.7572 H       1  UNL1        0.2922
     15 C          63.9201   85.9914   14.3396 C.2     1  UNL1        0.0420
     16 C          63.0647   84.7904   14.6159 C.2     1  UNL1        0.0033
     17 C          63.0498   83.6423   13.6507 C.ar    1  UNL1       -0.0003
     18 C          62.4959   82.3140   14.0738 C.ar    1  UNL1       -0.0013
     19 C          62.4809   81.1659   13.1086 C.ar    1  UNL1        0.0115
     20 C          61.9270   79.8377   13.5316 C.3     1  UNL1        0.0342
     21 C          63.0199   81.3460   11.7204 C.ar    1  UNL1        0.1256
     22 O          63.0050   80.1979   10.7552 O.3     1  UNL1       -0.5061
     23 C          63.5738   82.6742   11.2974 C.ar    1  UNL1        0.0115
     24 C          64.1128   82.8543    9.9092 C.3     1  UNL1        0.0342
     25 C          63.5888   83.8224   12.2625 C.ar    1  UNL1       -0.0013
     26 H          62.6590   79.3682   11.0194 H       1  UNL1        0.2922
@<TRIPOS>BOND
     1     5     6    1
     2     6     7   ar
     3     7     8   ar
     4     8     3    1
     5     3     4    2
     6     4     1    1
     7     1     2    2
     8     1    15    1
     9    15    16    2
    10    16    17    1
    11    17    18   ar
    12    18    19   ar
    13    19    20    1
    14    19    21   ar
    15    21    22    1
    16    21    23   ar
    17    23    24    1
    18    23    25   ar
    19     8     9   ar
    20     9    10   ar
    21    10    11    1
    22    10    12   ar
    23    12    13    1
    24    12     6   ar
    25    25    17   ar
    26    22    26    1
    27    13    14    1
@<TRIPOS>MOLECULE
*****
 26 27 0 0 0
SMALL
GASTEIGER

@<TRIPOS>ATOM
      1 C          63.9040   90.8768   13.9953 C.2     1  UNL1        0.1957
      2 O          63.7608   91.3258   15.4194 O.2     1  UNL1       -0.2866
      3 C          65.9046   92.0056   12.7817 C.2     1  UNL1        0.0033
      4 C          64.4259   91.8266   12.9583 C.2     1  UNL1        0.0420
      5 C          66.3413   96.8359   10.9166 C.3     1  UNL1        0.0342
      6 C          66.6448   95.3706   10.8121 C.ar    1  UNL1        0.0115
      7 C          66.1230   94.4208   11.8491 C.ar    1  UNL1       -0.0013
      8 C          66.4265   92.9555   11.7446 C.ar    1  UNL1       -0.0003
      9 C          67.2519   92.4401   10.6031 C.ar    1  UNL1       -0.0013
     10 C          67.7737   93.3900    9.5661 C.ar    1  UNL1        0.0115
     11 C          68.5992   92.8746    8.4245 C.3     1  UNL1        0.0342
     12 C          67.4702   94.8552    9.6706 C.ar    1  UNL1        0.1256
     13 O          67.9921   95.8051    8.6335 O.3     1  UNL1       -0.5061
     14 H          68.5077   95.4832    7.9205 H       1  UNL1        0.2922
     15 C          63.5252   89.4779   13.6083 C.2     1  UNL1        0.0420
     16 C          64.2483   88.3108   14.2124 C.2     1  UNL1        0.0033
     17 C          63.8696   86.9119   13.8254 C.ar    1  UNL1       -0.0003
     18 C          63.1626   86.6583   12.5270 C.ar    1  UNL1       -0.0013
     19 C          62.7838   85.2595   12.1400 C.ar    1  UNL1        0.0115
     20 C          62.0768   85.0059   10.8416 C.3     1  UNL1        0.0342
     21 C          63.1121   84.1142   13.0514 C.ar    1  UNL1        0.1256
     22 O          62.7334   82.7153   12.6644 O.3     1  UNL1       -0.5061
     23 C          63.8191   84.3678   14.3498 C.ar    1  UNL1        0.0115
     24 C          64.1474   83.2226   15.2612 C.3     1  UNL1        0.0342
     25 C          64.1979   85.7667   14.7368 C.ar    1  UNL1       -0.0013
     26 H          62.2918   82.5569   11.8534 H       1  UNL1        0.2922
@<TRIPOS>BOND
     1     5     6    1
     2     6     7   ar
     3     7     8   ar
     4     8     3    1
     5     3     4    2
     6     4     1    1
     7     1     2    2
     8     1    15    1
     9    15    16    2
    10    16    17    1
    11    17    18   ar
    12    18    19   ar
    13    19    20    1
    14    19    21   ar
    15    21    22    1
    16    21    23   ar
    17    23    24    1
    18    23    25   ar
    19     8     9   ar
    20     9    10   ar
    21    10    11    1
    22    10    12   ar
    23    12    13    1
    24    12     6   ar
    25    25    17   ar
    26    22    26    1
    27    13    14    1
@<TRIPOS>MOLECULE
*****
 26 27 0 0 0
SMALL
GASTEIGER

@<TRIPOS>ATOM
      1 C          63.7307   87.1586   15.6159 C.2     1  UNL1        0.1957
      2 O          63.1437   87.4556   16.9640 O.2     1  UNL1       -0.2866
      3 C          64.0989   89.6869   15.1446 C.2     1  UNL1        0.0033
      4 C          64.3940   88.2503   14.8298 C.2     1  UNL1        0.0420
      5 C          64.6766   92.3194   10.7021 C.3     1  UNL1        0.0342
      6 C          65.0511   92.0949   12.1371 C.ar    1  UNL1        0.0115
      7 C          64.3877   91.0032   12.9233 C.ar    1  UNL1       -0.0013
      8 C          64.7623   90.7786   14.3584 C.ar    1  UNL1       -0.0003
      9 C          65.8001   91.6457   15.0072 C.ar    1  UNL1       -0.0013
     10 C          66.4635   92.7374   14.2209 C.ar    1  UNL1        0.0115
     11 C          67.5014   93.6045   14.8697 C.3     1  UNL1        0.0342
     12 C          66.0889   92.9620   12.7859 C.ar    1  UNL1        0.1256
     13 O          66.7523   94.0537   11.9997 O.3     1  UNL1       -0.5061
     14 H          67.4007   94.5953   12.4050 H       1  UNL1        0.2922
     15 C          63.6544   85.7699   15.0541 C.2     1  UNL1        0.0420
     16 C          63.1468   85.5520   13.6594 C.2     1  UNL1        0.0033
     17 C          63.0705   84.1633   13.0976 C.ar    1  UNL1       -0.0003
     18 C          63.7277   83.8474   11.7867 C.ar    1  UNL1       -0.0013
     19 C          63.6514   82.4587   11.2249 C.ar    1  UNL1        0.0115
     20 C          64.3086   82.1428    9.9141 C.3     1  UNL1        0.0342
     21 C          62.9178   81.3859   11.9739 C.ar    1  UNL1        0.1256
     22 O          62.8414   79.9972   11.4121 O.3     1  UNL1       -0.5061
     23 C          62.2606   81.7018   13.2847 C.ar    1  UNL1        0.0115
     24 C          61.5270   80.6290   14.0336 C.3     1  UNL1        0.0342
     25 C          62.3369   83.0905   13.8465 C.ar    1  UNL1       -0.0013
     26 H          63.2520   79.7998   10.5932 H       1  UNL1        0.2922
@<TRIPOS>BOND
     1     5     6    1
     2     6     7   ar
     3     7     8   ar
     4     8     3    1
     5     3     4    2
     6     4     1    1
     7     1     2    2
     8     1    15    1
     9    15    16    2
    10    16    17    1
    11    17    18   ar
    12    18    19   ar
    13    19    20    1
    14    19    21   ar
    15    21    22    1
    16    21    23   ar
    17    23    24    1
    18    23    25   ar
    19     8     9   ar
    20     9    10   ar
    21    10    11    1
    22    10    12   ar
    23    12    13    1
    24    12     6   ar
    25    25    17   ar
    26    22    26    1
    27    13    14    1
