@<TRIPOS>MOLECULE
*****
 29 32 0 0 0
SMALL
GASTEIGER

@<TRIPOS>ATOM
      1 C          64.3157   91.1554   12.6320 C.ar    1  UNL1        0.0785
      2 C          63.4289   90.4100   11.6792 C.ar    1  UNL1        0.0183
      3 C          63.1276   88.9594   11.9136 C.ar    1  UNL1        0.0168
      4 C          63.7131   88.2542   13.1009 C.ar    1  UNL1        0.0636
      5 C          64.5999   88.9995   14.0538 C.ar    1  UNL1        0.0462
      6 C          64.9012   90.4501   13.8193 C.ar    1  UNL1        0.1547
      7 F          65.7881   91.1954   14.7723 F       1  UNL1       -0.2028
      8 N          63.4118   86.8036   13.3353 N.am    1  UNL1       -0.2010
      9 C          63.3460   86.1211   14.6695 C.2     1  UNL1        0.2589
     10 O          63.5701   86.7695   16.0034 O.2     1  UNL1       -0.2691
     11 C          63.0169   84.6765   14.4355 C.ar    1  UNL1        0.0584
     12 C          62.8248   83.5255   15.3779 C.ar    1  UNL1        0.0047
     13 C          62.4950   82.1640   14.8416 C.ar    1  UNL1       -0.0002
     14 C          62.3574   81.9536   13.3628 C.ar    1  UNL1       -0.0041
     15 C          62.5495   83.1047   12.4204 C.ar    1  UNL1       -0.0173
     16 C          62.4118   82.8943   10.9416 C.3     1  UNL1        0.0312
     17 C          62.8792   84.4661   12.9567 C.ar    1  UNL1        0.0547
     18 C          63.1233   85.7807   12.2768 C.2     1  UNL1        0.2586
     19 O          63.0854   86.0288   10.7980 O.2     1  UNL1       -0.2692
     20 C          65.8165   93.0016   11.5884 C.2     1  UNL1        0.2840
     21 O          66.7147   91.9466   11.0137 O.2     1  UNL1       -0.2665
     22 N          64.6170   92.6060   12.3976 N.am    1  UNL1       -0.2761
     23 H          64.0275   93.2984   12.7748 H       1  UNL1        0.1553
     24 C          67.3004   94.2529    8.9651 C.3     1  UNL1        0.0345
     25 C          66.7999   95.0273   10.1481 C.ar    1  UNL1        0.0204
     26 C          66.8936   96.5130   10.3331 C.ar    1  UNL1        0.0396
     27 C          66.2694   96.8560   11.6533 C.ar    1  UNL1        0.1795
     28 O          65.7899   95.5824   12.2842 O.2     1  UNL1       -0.4461
     29 C          66.1178   94.4522   11.3540 C.ar    1  UNL1        0.1948
@<TRIPOS>BOND
     1    24    25    1
     2    25    26   ar
     3    26    27   ar
     4    27    28   ar
     5    28    29   ar
     6    29    20    1
     7    20    21    2
     8    20    22   am
     9    22     1    1
    10     1     2   ar
    11     2     3   ar
    12     3     4   ar
    13     4     8    1
    14     8     9   am
    15     9    10    2
    16     9    11    1
    17    11    12   ar
    18    12    13   ar
    19    13    14   ar
    20    14    15   ar
    21    15    16    1
    22    15    17   ar
    23    17    18    1
    24    18    19    2
    25     4     5   ar
    26     5     6   ar
    27     6     7    1
    28    29    25   ar
    29     6     1   ar
    30    18     8   am
    31    17    11   ar
    32    22    23    1
@<TRIPOS>MOLECULE
*****
 29 32 0 0 0
SMALL
GASTEIGER

@<TRIPOS>ATOM
      1 C          62.7616   86.4775   12.9497 C.ar    1  UNL1        0.0785
      2 C          62.3886   87.2602   11.7257 C.ar    1  UNL1        0.0183
      3 C          62.9341   88.6429   11.5245 C.ar    1  UNL1        0.0168
      4 C          63.8526   89.2430   12.5473 C.ar    1  UNL1        0.0636
      5 C          64.2256   88.4603   13.7714 C.ar    1  UNL1        0.0462
      6 C          63.6801   87.0776   13.9725 C.ar    1  UNL1        0.1547
      7 F          64.0532   86.2949   15.1966 F       1  UNL1       -0.2028
      8 N          64.3981   90.6257   12.3462 N.am    1  UNL1       -0.2010
      9 C          64.2038   91.4819   11.1299 C.2     1  UNL1        0.2589
     10 O          63.4299   91.1057    9.9013 O.2     1  UNL1       -0.2691
     11 C          64.9193   92.7804   11.3580 C.ar    1  UNL1        0.0584
     12 C          65.0735   94.0047   10.5052 C.ar    1  UNL1        0.0047
     13 C          65.8641   95.1753   11.0095 C.ar    1  UNL1       -0.0002
     14 C          66.5007   95.1216   12.3667 C.ar    1  UNL1       -0.0041
     15 C          66.3465   93.8974   13.2195 C.ar    1  UNL1       -0.0173
     16 C          66.9830   93.8437   14.5767 C.3     1  UNL1        0.0312
     17 C          65.5558   92.7267   12.7152 C.ar    1  UNL1        0.0547
     18 C          65.2337   91.3951   13.3259 C.2     1  UNL1        0.2586
     19 O          65.6705   90.9168   14.6788 O.2     1  UNL1       -0.2692
     20 C          63.1322   83.9093   13.0785 C.2     1  UNL1        0.2840
     21 O          64.5938   84.1064   12.8048 O.2     1  UNL1       -0.2665
     22 N          62.2161   85.0948   13.1509 N.am    1  UNL1       -0.2761
     23 H          61.2568   84.9654   13.3305 H       1  UNL1        0.1553
     24 C          63.3882   81.4222   10.9812 C.3     1  UNL1        0.0345
     25 C          62.7044   81.3833   12.3155 C.ar    1  UNL1        0.0204
     26 C          62.0181   80.1945   12.9203 C.ar    1  UNL1        0.0396
     27 C          61.4763   80.6029   14.2581 C.ar    1  UNL1        0.1795
     28 O          61.8277   82.0442   14.4802 O.2     1  UNL1       -0.4461
     29 C          62.5866   82.5265   13.2796 C.ar    1  UNL1        0.1948
@<TRIPOS>BOND
     1    24    25    1
     2    25    26   ar
     3    26    27   ar
     4    27    28   ar
     5    28    29   ar
     6    29    20    1
     7    20    21    2
     8    20    22   am
     9    22     1    1
    10     1     2   ar
    11     2     3   ar
    12     3     4   ar
    13     4     8    1
    14     8     9   am
    15     9    10    2
    16     9    11    1
    17    11    12   ar
    18    12    13   ar
    19    13    14   ar
    20    14    15   ar
    21    15    16    1
    22    15    17   ar
    23    17    18    1
    24    18    19    2
    25     4     5   ar
    26     5     6   ar
    27     6     7    1
    28    29    25   ar
    29     6     1   ar
    30    18     8   am
    31    17    11   ar
    32    22    23    1
@<TRIPOS>MOLECULE
*****
 29 32 0 0 0
SMALL
GASTEIGER

@<TRIPOS>ATOM
      1 C          60.7281   88.9234    9.0317 C.ar    1  UNL1        0.0785
      2 C          60.2036   87.5211    9.1234 C.ar    1  UNL1        0.0183
      3 C          60.8308   86.5465   10.0757 C.ar    1  UNL1        0.0168
      4 C          61.9825   86.9742   10.9363 C.ar    1  UNL1        0.0636
      5 C          62.5070   88.3765   10.8446 C.ar    1  UNL1        0.0462
      6 C          61.8798   89.3511    9.8923 C.ar    1  UNL1        0.1547
      7 F          62.4043   90.7535    9.8006 F       1  UNL1       -0.2028
      8 N          62.6097   85.9997   11.8885 N.am    1  UNL1       -0.2010
      9 C          63.3543   86.3478   13.1433 C.2     1  UNL1        0.2589
     10 O          63.6024   87.7317   13.6661 O.2     1  UNL1       -0.2691
     11 C          63.8073   85.0692   13.7835 C.ar    1  UNL1        0.0584
     12 C          64.5827   84.7944   15.0377 C.ar    1  UNL1        0.0047
     13 C          64.8936   83.3812   15.4328 C.ar    1  UNL1       -0.0002
     14 C          64.4290   82.2428   14.5737 C.ar    1  UNL1       -0.0041
     15 C          63.6535   82.5175   13.3195 C.ar    1  UNL1       -0.0173
     16 C          63.1889   81.3790   12.4604 C.3     1  UNL1        0.0312
     17 C          63.3426   83.9307   12.9244 C.ar    1  UNL1        0.0547
     18 C          62.6025   84.5058   11.7533 C.2     1  UNL1        0.2586
     19 O          61.9668   83.7242   10.6419 O.2     1  UNL1       -0.2692
     20 C          59.3722   89.3988    6.8672 C.2     1  UNL1        0.2840
     21 O          59.2707   87.9249    6.6070 O.2     1  UNL1       -0.2665
     22 N          60.1009   89.8980    8.0795 N.am    1  UNL1       -0.2761
     23 H          60.1675   90.8653    8.2502 H       1  UNL1        0.1553
     24 C          60.9563   91.2469    4.6936 C.3     1  UNL1        0.0345
     25 C          59.4732   91.2228    4.9158 C.ar    1  UNL1        0.0204
     26 C          58.4576   92.0440    4.1780 C.ar    1  UNL1        0.0396
     27 C          57.1018   91.7021    4.7210 C.ar    1  UNL1        0.1795
     28 O          57.2794   90.6696    5.7945 O.2     1  UNL1       -0.4461
     29 C          58.7449   90.3733    5.9149 C.ar    1  UNL1        0.1948
@<TRIPOS>BOND
     1    24    25    1
     2    25    26   ar
     3    26    27   ar
     4    27    28   ar
     5    28    29   ar
     6    29    20    1
     7    20    21    2
     8    20    22   am
     9    22     1    1
    10     1     2   ar
    11     2     3   ar
    12     3     4   ar
    13     4     8    1
    14     8     9   am
    15     9    10    2
    16     9    11    1
    17    11    12   ar
    18    12    13   ar
    19    13    14   ar
    20    14    15   ar
    21    15    16    1
    22    15    17   ar
    23    17    18    1
    24    18    19    2
    25     4     5   ar
    26     5     6   ar
    27     6     7    1
    28    29    25   ar
    29     6     1   ar
    30    18     8   am
    31    17    11   ar
    32    22    23    1
@<TRIPOS>MOLECULE
*****
 29 32 0 0 0
SMALL
GASTEIGER

@<TRIPOS>ATOM
      1 C          55.8527   94.9064   -1.5750 C.ar    1  UNL1        0.0785
      2 C          56.7525   96.0381   -1.1757 C.ar    1  UNL1        0.0183
      3 C          58.1727   95.7630   -0.7793 C.ar    1  UNL1        0.0168
      4 C          58.6932   94.3563   -0.7822 C.ar    1  UNL1        0.0636
      5 C          57.7934   93.2246   -1.1815 C.ar    1  UNL1        0.0462
      6 C          56.3731   93.4996   -1.5779 C.ar    1  UNL1        0.1547
      7 F          55.4733   92.3678   -1.9773 F       1  UNL1       -0.2028
      8 N          60.1135   94.0812   -0.3857 N.am    1  UNL1       -0.2010
      9 C          61.3378   94.5075   -1.1403 C.2     1  UNL1        0.2589
     10 O          61.3569   95.2836   -2.4237 O.2     1  UNL1       -0.2691
     11 C          62.5399   94.0213   -0.3860 C.ar    1  UNL1        0.0584
     12 C          64.0105   94.1465   -0.6531 C.ar    1  UNL1        0.0047
     13 C          64.9998   93.5449    0.3006 C.ar    1  UNL1       -0.0002
     14 C          64.5183   92.8182    1.5212 C.ar    1  UNL1       -0.0041
     15 C          63.0476   92.6930    1.7883 C.ar    1  UNL1       -0.0173
     16 C          62.5662   91.9663    3.0089 C.3     1  UNL1        0.0312
     17 C          62.0584   93.2946    0.8346 C.ar    1  UNL1        0.0547
     18 C          60.5589   93.3316    0.8348 C.2     1  UNL1        0.2586
     19 O          59.6621   92.7254    1.8733 O.2     1  UNL1       -0.2692
     20 C          54.1399   96.0493   -3.1593 C.2     1  UNL1        0.2840
     21 O          55.2678   96.6422   -3.9509 O.2     1  UNL1       -0.2665
     22 N          54.4324   95.1814   -1.9714 N.am    1  UNL1       -0.2761
     23 H          53.6921   94.7923   -1.4519 H       1  UNL1        0.1553
     24 C          52.9943   96.1956   -6.2115 C.3     1  UNL1        0.0345
     25 C          52.1931   96.3916   -4.9588 C.ar    1  UNL1        0.0204
     26 C          50.7245   96.6893   -4.8888 C.ar    1  UNL1        0.0396
     27 C          50.3435   96.8060   -3.4427 C.ar    1  UNL1        0.1795
     28 O          51.5766   96.5805   -2.6189 O.2     1  UNL1       -0.4461
     29 C          52.7196   96.3244   -3.5558 C.ar    1  UNL1        0.1948
@<TRIPOS>BOND
     1    24    25    1
     2    25    26   ar
     3    26    27   ar
     4    27    28   ar
     5    28    29   ar
     6    29    20    1
     7    20    21    2
     8    20    22   am
     9    22     1    1
    10     1     2   ar
    11     2     3   ar
    12     3     4   ar
    13     4     8    1
    14     8     9   am
    15     9    10    2
    16     9    11    1
    17    11    12   ar
    18    12    13   ar
    19    13    14   ar
    20    14    15   ar
    21    15    16    1
    22    15    17   ar
    23    17    18    1
    24    18    19    2
    25     4     5   ar
    26     5     6   ar
    27     6     7    1
    28    29    25   ar
    29     6     1   ar
    30    18     8   am
    31    17    11   ar
    32    22    23    1
@<TRIPOS>MOLECULE
*****
 29 32 0 0 0
SMALL
GASTEIGER

@<TRIPOS>ATOM
      1 C          55.8876   95.1650   -1.8778 C.ar    1  UNL1        0.0785
      2 C          56.8843   96.2207   -1.5009 C.ar    1  UNL1        0.0183
      3 C          58.1948   95.8291   -0.8849 C.ar    1  UNL1        0.0168
      4 C          58.5085   94.3819   -0.6459 C.ar    1  UNL1        0.0636
      5 C          57.5117   93.3263   -1.0229 C.ar    1  UNL1        0.0462
      6 C          56.2013   93.7179   -1.6388 C.ar    1  UNL1        0.1547
      7 F          55.2045   92.6621   -2.0158 F       1  UNL1       -0.2028
      8 N          59.8189   93.9903   -0.0299 N.am    1  UNL1       -0.2010
      9 C          59.9998   93.2544    1.2646 C.2     1  UNL1        0.2589
     10 O          58.9020   92.7809    2.1704 O.2     1  UNL1       -0.2691
     11 C          61.4712   93.0752    1.4942 C.ar    1  UNL1        0.0584
     12 C          62.2418   92.4235    2.6039 C.ar    1  UNL1        0.0047
     13 C          63.7409   92.3970    2.5611 C.ar    1  UNL1       -0.0002
     14 C          64.4695   93.0221    1.4085 C.ar    1  UNL1       -0.0041
     15 C          63.6989   93.6738    0.2988 C.ar    1  UNL1       -0.0173
     16 C          64.4275   94.2989   -0.8537 C.3     1  UNL1        0.0312
     17 C          62.1998   93.7003    0.3417 C.ar    1  UNL1        0.0547
     18 C          61.1786   94.2659   -0.6003 C.2     1  UNL1        0.2586
     19 O          61.4666   94.9814   -1.8868 O.2     1  UNL1       -0.2692
     20 C          54.4673   95.7234   -3.9804 C.2     1  UNL1        0.2840
     21 O          55.6679   95.4987   -4.8511 O.2     1  UNL1       -0.2665
     22 N          54.5771   95.5566   -2.4938 N.am    1  UNL1       -0.2761
     23 H          53.7892   95.7041   -1.9223 H       1  UNL1        0.1553
     24 C          51.5870   95.8387   -2.4506 C.3     1  UNL1        0.0345
     25 C          51.8329   96.1680   -3.8932 C.ar    1  UNL1        0.0204
     26 C          50.7981   96.6081   -4.8859 C.ar    1  UNL1        0.0396
     27 C          51.4824   96.8271   -6.2026 C.ar    1  UNL1        0.1795
     28 O          52.9402   96.5224   -6.0236 O.2     1  UNL1       -0.4461
     29 C          53.1568   96.1150   -4.5964 C.ar    1  UNL1        0.1948
@<TRIPOS>BOND
     1    24    25    1
     2    25    26   ar
     3    26    27   ar
     4    27    28   ar
     5    28    29   ar
     6    29    20    1
     7    20    21    2
     8    20    22   am
     9    22     1    1
    10     1     2   ar
    11     2     3   ar
    12     3     4   ar
    13     4     8    1
    14     8     9   am
    15     9    10    2
    16     9    11    1
    17    11    12   ar
    18    12    13   ar
    19    13    14   ar
    20    14    15   ar
    21    15    16    1
    22    15    17   ar
    23    17    18    1
    24    18    19    2
    25     4     5   ar
    26     5     6   ar
    27     6     7    1
    28    29    25   ar
    29     6     1   ar
    30    18     8   am
    31    17    11   ar
    32    22    23    1
@<TRIPOS>MOLECULE
*****
 29 32 0 0 0
SMALL
GASTEIGER

@<TRIPOS>ATOM
      1 C          58.4626   94.7589   -0.5071 C.ar    1  UNL1        0.0785
      2 C          58.3100   96.1308   -1.0940 C.ar    1  UNL1        0.0183
      3 C          57.1350   96.4445   -1.9722 C.ar    1  UNL1        0.0168
      4 C          56.1127   95.3862   -2.2634 C.ar    1  UNL1        0.0636
      5 C          56.2653   94.0143   -1.6765 C.ar    1  UNL1        0.0462
      6 C          57.4402   93.7006   -0.7984 C.ar    1  UNL1        0.1547
      7 F          57.5928   92.3286   -0.2114 F       1  UNL1       -0.2028
      8 N          54.9378   95.6999   -3.1415 N.am    1  UNL1       -0.2010
      9 C          54.9393   95.7232   -4.6414 C.2     1  UNL1        0.2589
     10 O          56.1161   95.4369   -5.5264 O.2     1  UNL1       -0.2691
     11 C          53.5575   96.0830   -5.1008 C.ar    1  UNL1        0.0584
     12 C          52.9678   96.2551   -6.4692 C.ar    1  UNL1        0.0047
     13 C          51.5225   96.6263   -6.6218 C.ar    1  UNL1       -0.0002
     14 C          50.6669   96.8254   -5.4059 C.ar    1  UNL1       -0.0041
     15 C          51.2566   96.6533   -4.0375 C.ar    1  UNL1       -0.0173
     16 C          50.4010   96.8524   -2.8216 C.3     1  UNL1        0.0312
     17 C          52.7019   96.2821   -3.8850 C.ar    1  UNL1        0.0547
     18 C          53.5550   96.0453   -2.6741 C.2     1  UNL1        0.2586
     19 O          53.1043   96.1377   -1.2464 O.2     1  UNL1       -0.2692
     20 C          60.7635   93.6051   -0.1545 C.2     1  UNL1        0.2840
     21 O          60.7146   93.0786   -1.5583 O.2     1  UNL1       -0.2665
     22 N          59.6375   94.4452    0.3710 N.am    1  UNL1       -0.2761
     23 H          59.6696   94.7908    1.2923 H       1  UNL1        0.1553
     24 C          63.8948   94.2005   -0.8548 C.3     1  UNL1        0.0345
     25 C          63.3778   93.5651    0.4017 C.ar    1  UNL1        0.0204
     26 C          64.2092   93.0918    1.5570 C.ar    1  UNL1        0.0396
     27 C          63.2838   92.5257    2.5929 C.ar    1  UNL1        0.1795
     28 O          61.8804   92.6490    2.0779 O.2     1  UNL1       -0.4461
     29 C          61.9384   93.2914    0.7236 C.ar    1  UNL1        0.1948
@<TRIPOS>BOND
     1    24    25    1
     2    25    26   ar
     3    26    27   ar
     4    27    28   ar
     5    28    29   ar
     6    29    20    1
     7    20    21    2
     8    20    22   am
     9    22     1    1
    10     1     2   ar
    11     2     3   ar
    12     3     4   ar
    13     4     8    1
    14     8     9   am
    15     9    10    2
    16     9    11    1
    17    11    12   ar
    18    12    13   ar
    19    13    14   ar
    20    14    15   ar
    21    15    16    1
    22    15    17   ar
    23    17    18    1
    24    18    19    2
    25     4     5   ar
    26     5     6   ar
    27     6     7    1
    28    29    25   ar
    29     6     1   ar
    30    18     8   am
    31    17    11   ar
    32    22    23    1
@<TRIPOS>MOLECULE
*****
 29 32 0 0 0
SMALL
GASTEIGER

@<TRIPOS>ATOM
      1 C          58.8955   95.0857   -0.8792 C.ar    1  UNL1        0.0785
      2 C          58.6965   96.3281   -1.6957 C.ar    1  UNL1        0.0183
      3 C          57.3993   96.5536   -2.4144 C.ar    1  UNL1        0.0168
      4 C          56.3011   95.5366   -2.3164 C.ar    1  UNL1        0.0636
      5 C          56.5000   94.2942   -1.4998 C.ar    1  UNL1        0.0462
      6 C          57.7972   94.0688   -0.7812 C.ar    1  UNL1        0.1547
      7 F          57.9962   92.8263    0.0354 F       1  UNL1       -0.2028
      8 N          55.0039   95.7621   -3.0350 N.am    1  UNL1       -0.2010
      9 C          53.6629   95.9601   -2.3927 C.2     1  UNL1        0.2589
     10 O          53.3837   95.9675   -0.9189 O.2     1  UNL1       -0.2691
     11 C          52.6501   96.1495   -3.4828 C.ar    1  UNL1        0.0584
     12 C          51.1692   96.3852   -3.4471 C.ar    1  UNL1        0.0047
     13 C          50.4034   96.5400   -4.7275 C.ar    1  UNL1       -0.0002
     14 C          51.1184   96.4590   -6.0436 C.ar    1  UNL1       -0.0041
     15 C          52.5993   96.2233   -6.0794 C.ar    1  UNL1       -0.0173
     16 C          53.3143   96.1423   -7.3955 C.3     1  UNL1        0.0312
     17 C          53.3652   96.0685   -4.7990 C.ar    1  UNL1        0.0547
     18 C          54.8198   95.8291   -4.5222 C.2     1  UNL1        0.2586
     19 O          55.9007   95.6824   -5.5518 O.2     1  UNL1       -0.2692
     20 C          61.2400   93.9721   -0.7641 C.2     1  UNL1        0.2840
     21 O          60.9901   93.3094   -2.0864 O.2     1  UNL1       -0.2665
     22 N          60.1927   94.8603   -0.1605 N.am    1  UNL1       -0.2761
     23 H          60.3567   95.2952    0.7073 H       1  UNL1        0.1553
     24 C          61.5832   92.6973    2.2203 C.3     1  UNL1        0.0345
     25 C          62.6949   93.1607    1.3264 C.ar    1  UNL1        0.0204
     26 C          64.1597   93.1195    1.6471 C.ar    1  UNL1        0.0396
     27 C          64.9072   93.6800    0.4736 C.ar    1  UNL1        0.1795
     28 O          63.9044   94.0676   -0.5724 O.2     1  UNL1       -0.4461
     29 C          62.5372   93.7467   -0.0455 C.ar    1  UNL1        0.1948
@<TRIPOS>BOND
     1    24    25    1
     2    25    26   ar
     3    26    27   ar
     4    27    28   ar
     5    28    29   ar
     6    29    20    1
     7    20    21    2
     8    20    22   am
     9    22     1    1
    10     1     2   ar
    11     2     3   ar
    12     3     4   ar
    13     4     8    1
    14     8     9   am
    15     9    10    2
    16     9    11    1
    17    11    12   ar
    18    12    13   ar
    19    13    14   ar
    20    14    15   ar
    21    15    16    1
    22    15    17   ar
    23    17    18    1
    24    18    19    2
    25     4     5   ar
    26     5     6   ar
    27     6     7    1
    28    29    25   ar
    29     6     1   ar
    30    18     8   am
    31    17    11   ar
    32    22    23    1
@<TRIPOS>MOLECULE
*****
 29 32 0 0 0
SMALL
GASTEIGER

@<TRIPOS>ATOM
      1 C          60.7427   88.8574    8.9103 C.ar    1  UNL1        0.0785
      2 C          60.2313   87.4473    8.9222 C.ar    1  UNL1        0.0183
      3 C          60.8362   86.4380    9.8524 C.ar    1  UNL1        0.0168
      4 C          61.9525   86.8387   10.7708 C.ar    1  UNL1        0.0636
      5 C          62.4638   88.2487   10.7589 C.ar    1  UNL1        0.0462
      6 C          61.8589   89.2581    9.8287 C.ar    1  UNL1        0.1547
      7 F          62.3703   90.6682    9.8168 F       1  UNL1       -0.2028
      8 N          62.5574   85.8293   11.7010 N.am    1  UNL1       -0.2010
      9 C          62.5899   84.3445   11.4905 C.2     1  UNL1        0.2589
     10 O          62.0232   83.6084   10.3128 O.2     1  UNL1       -0.2691
     11 C          63.2886   83.7251   12.6645 C.ar    1  UNL1        0.0584
     12 C          63.6127   82.3000   13.0020 C.ar    1  UNL1        0.0047
     13 C          64.3362   81.9769   14.2756 C.ar    1  UNL1       -0.0002
     14 C          64.7356   83.0789   15.2117 C.ar    1  UNL1       -0.0041
     15 C          64.4114   84.5040   14.8741 C.ar    1  UNL1       -0.0173
     16 C          64.8107   85.6059   15.8102 C.3     1  UNL1        0.0312
     17 C          63.6879   84.8271   13.6005 C.ar    1  UNL1        0.0547
     18 C          63.2360   86.1275   13.0050 C.2     1  UNL1        0.2586
     19 O          63.4288   87.4875   13.6078 O.2     1  UNL1       -0.2692
     20 C          59.3335   89.4107    6.7989 C.2     1  UNL1        0.2840
     21 O          59.1341   87.9453    6.5480 O.2     1  UNL1       -0.2665
     22 N          60.1378   89.8667    7.9801 N.am    1  UNL1       -0.2761
     23 H          60.2686   90.8285    8.1448 H       1  UNL1        0.1553
     24 C          60.9630   91.2955    4.6913 C.3     1  UNL1        0.0345
     25 C          59.4777   91.2864    4.8999 C.ar    1  UNL1        0.0204
     26 C          58.4804   92.1421    4.1764 C.ar    1  UNL1        0.0396
     27 C          57.1151   91.8046    4.6980 C.ar    1  UNL1        0.1795
     28 O          57.2685   90.7404    5.7439 O.2     1  UNL1       -0.4461
     29 C          58.7286   90.4201    5.8687 C.ar    1  UNL1        0.1948
@<TRIPOS>BOND
     1    24    25    1
     2    25    26   ar
     3    26    27   ar
     4    27    28   ar
     5    28    29   ar
     6    29    20    1
     7    20    21    2
     8    20    22   am
     9    22     1    1
    10     1     2   ar
    11     2     3   ar
    12     3     4   ar
    13     4     8    1
    14     8     9   am
    15     9    10    2
    16     9    11    1
    17    11    12   ar
    18    12    13   ar
    19    13    14   ar
    20    14    15   ar
    21    15    16    1
    22    15    17   ar
    23    17    18    1
    24    18    19    2
    25     4     5   ar
    26     5     6   ar
    27     6     7    1
    28    29    25   ar
    29     6     1   ar
    30    18     8   am
    31    17    11   ar
    32    22    23    1
@<TRIPOS>MOLECULE
*****
 29 32 0 0 0
SMALL
GASTEIGER

@<TRIPOS>ATOM
      1 C          62.9448   86.5213   13.2089 C.ar    1  UNL1        0.0785
      2 C          62.6012   87.4038   12.0456 C.ar    1  UNL1        0.0183
      3 C          63.1768   88.7861   11.9572 C.ar    1  UNL1        0.0168
      4 C          64.0959   89.2861   13.0319 C.ar    1  UNL1        0.0636
      5 C          64.4395   88.4036   14.1952 C.ar    1  UNL1        0.0462
      6 C          63.8640   87.0213   14.2837 C.ar    1  UNL1        0.1547
      7 F          64.2076   86.1388   15.4470 F       1  UNL1       -0.2028
      8 N          64.6715   90.6684   12.9434 N.am    1  UNL1       -0.2010
      9 C          65.3598   91.4095   14.0511 C.2     1  UNL1        0.2589
     10 O          65.5935   90.8983   15.4419 O.2     1  UNL1       -0.2691
     11 C          65.7735   92.7515   13.5240 C.ar    1  UNL1        0.0584
     12 C          66.4883   93.9044   14.1642 C.ar    1  UNL1        0.0047
     13 C          66.7704   95.1457   13.3708 C.ar    1  UNL1       -0.0002
     14 C          66.3377   95.2341   11.9372 C.ar    1  UNL1       -0.0041
     15 C          65.6230   94.0812   11.2971 C.ar    1  UNL1       -0.0173
     16 C          65.1903   94.1695    9.8636 C.3     1  UNL1        0.0312
     17 C          65.3409   92.8399   12.0905 C.ar    1  UNL1        0.0547
     18 C          64.6598   91.5525   11.7317 C.2     1  UNL1        0.2586
     19 O          64.0705   91.2094   10.3957 O.2     1  UNL1       -0.2692
     20 C          63.2769   83.9452   13.2658 C.2     1  UNL1        0.2840
     21 O          64.7602   84.1338   13.1458 O.2     1  UNL1       -0.2665
     22 N          62.3693   85.1390   13.2974 N.am    1  UNL1       -0.2761
     23 H          61.3958   85.0152   13.3762 H       1  UNL1        0.1553
     24 C          63.4645   81.6384   10.9652 C.3     1  UNL1        0.0345
     25 C          62.7876   81.5025   12.2967 C.ar    1  UNL1        0.0204
     26 C          62.0780   80.2825   12.8048 C.ar    1  UNL1        0.0396
     27 C          61.5533   80.5888   14.1762 C.ar    1  UNL1        0.1795
     28 O          61.9385   81.9981   14.5158 O.2     1  UNL1       -0.4461
     29 C          62.7014   82.5629   13.3543 C.ar    1  UNL1        0.1948
@<TRIPOS>BOND
     1    24    25    1
     2    25    26   ar
     3    26    27   ar
     4    27    28   ar
     5    28    29   ar
     6    29    20    1
     7    20    21    2
     8    20    22   am
     9    22     1    1
    10     1     2   ar
    11     2     3   ar
    12     3     4   ar
    13     4     8    1
    14     8     9   am
    15     9    10    2
    16     9    11    1
    17    11    12   ar
    18    12    13   ar
    19    13    14   ar
    20    14    15   ar
    21    15    16    1
    22    15    17   ar
    23    17    18    1
    24    18    19    2
    25     4     5   ar
    26     5     6   ar
    27     6     7    1
    28    29    25   ar
    29     6     1   ar
    30    18     8   am
    31    17    11   ar
    32    22    23    1
