@<TRIPOS>MOLECULE
*****
 31 33 0 0 0
SMALL
GASTEIGER

@<TRIPOS>ATOM
      1 C          63.7841   86.9434   13.7639 C.ar    1  UNL1        0.0391
      2 C          63.1812   87.5138   12.5145 C.ar    1  UNL1        0.0029
      3 C          63.2277   88.9924   12.2667 C.ar    1  UNL1       -0.0025
      4 C          63.8771   89.9007   13.2685 C.ar    1  UNL1       -0.0026
      5 C          64.4800   89.3302   14.5179 C.ar    1  UNL1       -0.0025
      6 C          64.4335   87.8516   14.7656 C.ar    1  UNL1        0.0029
      7 C          62.9167   83.2081   14.3652 C.ar    1  UNL1        0.2366
      8 N          62.4979   84.6261   14.1124 N.ar    1  UNL1       -0.1907
      9 C          63.7376   85.4647   14.0117 C.ar    1  UNL1        0.2033
     10 N          64.9225   84.5649   14.2022 N.ar    1  UNL1       -0.0560
     11 O          64.4152   83.1703   14.4207 O.2     1  UNL1       -0.3370
     12 C          61.9983   82.0341   14.5330 C.3     1  UNL1        0.0880
     13 C          61.7297   81.1204   13.3741 C.3     1  UNL1        0.0098
     14 C          62.8515   80.7100   12.4669 C.3     1  UNL1        0.0005
     15 C          63.0321   81.3904   11.1423 C.3     1  UNL1        0.0000
     16 C          64.1630   82.3555   10.9429 C.3     1  UNL1        0.0000
     17 C          62.7743   84.5176   10.5598 C.3     1  UNL1        0.0000
     18 C          63.9330   83.6367   10.1975 C.3     1  UNL1        0.0000
     19 C          63.9236   91.3794   13.0207 C.3     1  UNL1        0.1164
     20 N          64.7167   91.9223   11.8691 N.am    1  UNL1       -0.2993
     21 C          66.1778   92.2172   12.0375 C.2     1  UNL1        0.2394
     22 O          66.8457   91.9692   13.3575 O.2     1  UNL1       -0.2736
     23 H          64.2783   92.0851   11.0028 H       1  UNL1        0.1498
     24 C          66.9709   92.7601   10.8859 C.3     1  UNL1        0.1586
     25 N          68.2920   92.2399   10.4021 N.3     1  UNL1       -0.2893
     26 C          68.7198   93.0769    9.2332 C.3     1  UNL1        0.0715
     27 C          67.6631   94.1144    8.9945 C.3     1  UNL1        0.0482
     28 C          66.5822   93.9186   10.0159 C.3     1  UNL1        0.1350
     29 O          65.3322   94.7376   10.1448 O.3     1  UNL1       -0.3825
     30 H          68.1961   91.2662   10.1140 H       1  UNL1        0.1237
     31 H          65.3235   95.4244    9.4599 H       1  UNL1        0.2104
@<TRIPOS>BOND
     1    17    18    1
     2    18    16    1
     3    16    15    1
     4    15    14    1
     5    14    13    1
     6    13    12    1
     7    12     7    1
     8     7     8   ar
     9     8     9   ar
    10     9     1    1
    11     1     2   ar
    12     2     3   ar
    13     3     4   ar
    14     4    19    1
    15    19    20    1
    16    20    21   am
    17    21    22    2
    18    24    21    1
    19    24    25    1
    20    25    26    1
    21    26    27    1
    22    27    28    1
    23    28    29    1
    24     4     5   ar
    25     5     6   ar
    26     9    10   ar
    27    10    11   ar
    28    11     7   ar
    29     6     1   ar
    30    28    24    1
    31    20    23    1
    32    25    30    1
    33    29    31    1
@<TRIPOS>MOLECULE
*****
 31 33 0 0 0
SMALL
GASTEIGER

@<TRIPOS>ATOM
      1 C          63.7564   88.1731   13.4157 C.ar    1  UNL1        0.0391
      2 C          64.6157   88.6300   14.5571 C.ar    1  UNL1        0.0029
      3 C          65.0889   90.0521   14.6173 C.ar    1  UNL1       -0.0025
      4 C          64.7028   91.0174   13.5360 C.ar    1  UNL1       -0.0026
      5 C          63.8435   90.5605   12.3946 C.ar    1  UNL1       -0.0025
      6 C          63.3703   89.1384   12.3345 C.ar    1  UNL1        0.0029
      7 C          62.8497   84.4358   13.9409 C.ar    1  UNL1        0.2366
      8 N          63.4818   85.7100   14.4171 N.ar    1  UNL1       -0.1907
      9 C          63.2832   86.7510   13.3555 C.ar    1  UNL1        0.2033
     10 N          62.5284   86.1201   12.2232 N.ar    1  UNL1       -0.0560
     11 O          62.2604   84.6893   12.5850 O.2     1  UNL1       -0.3370
     12 C          62.8132   83.1363   14.6892 C.3     1  UNL1        0.0880
     13 C          61.8841   82.0437   14.2500 C.3     1  UNL1        0.0098
     14 C          62.4313   80.6959   13.8840 C.3     1  UNL1        0.0005
     15 C          62.7533   80.3804   12.4533 C.3     1  UNL1        0.0000
     16 C          62.8564   81.4871   11.4461 C.3     1  UNL1        0.0000
     17 C          64.3241   83.1608   10.1065 C.3     1  UNL1        0.0000
     18 C          64.1600   82.2025   11.2487 C.3     1  UNL1        0.0000
     19 C          65.1760   92.4395   13.5962 C.3     1  UNL1        0.1164
     20 N          65.3569   93.2240   12.3306 N.am    1  UNL1       -0.2993
     21 C          66.6636   93.1715   11.5959 C.2     1  UNL1        0.2394
     22 O          67.7895   92.3346   12.1269 O.2     1  UNL1       -0.2736
     23 H          64.6179   93.7733   11.9821 H       1  UNL1        0.1498
     24 C          66.8445   93.9560   10.3303 C.3     1  UNL1        0.1586
     25 N          65.8297   94.8664    9.7046 N.3     1  UNL1       -0.2893
     26 C          66.4299   95.4408    8.4557 C.3     1  UNL1        0.0715
     27 C          67.8156   94.8855    8.3095 C.3     1  UNL1        0.0482
     28 C          68.0718   93.9678    9.4680 C.3     1  UNL1        0.1350
     29 O          69.3338   93.1972    9.7200 O.3     1  UNL1       -0.3825
     30 H          65.5930   95.6180   10.3523 H       1  UNL1        0.1237
     31 H          69.9718   93.3813    9.0129 H       1  UNL1        0.2104
@<TRIPOS>BOND
     1    17    18    1
     2    18    16    1
     3    16    15    1
     4    15    14    1
     5    14    13    1
     6    13    12    1
     7    12     7    1
     8     7     8   ar
     9     8     9   ar
    10     9     1    1
    11     1     2   ar
    12     2     3   ar
    13     3     4   ar
    14     4    19    1
    15    19    20    1
    16    20    21   am
    17    21    22    2
    18    24    21    1
    19    24    25    1
    20    25    26    1
    21    26    27    1
    22    27    28    1
    23    28    29    1
    24     4     5   ar
    25     5     6   ar
    26     9    10   ar
    27    10    11   ar
    28    11     7   ar
    29     6     1   ar
    30    28    24    1
    31    20    23    1
    32    25    30    1
    33    29    31    1
@<TRIPOS>MOLECULE
*****
 31 33 0 0 0
SMALL
GASTEIGER

@<TRIPOS>ATOM
      1 C          63.6456   86.1928   13.9144 C.ar    1  UNL1        0.0391
      2 C          64.3251   87.0560   14.9357 C.ar    1  UNL1        0.0029
      3 C          64.4814   88.5274   14.6896 C.ar    1  UNL1       -0.0025
      4 C          63.9583   89.1355   13.4221 C.ar    1  UNL1       -0.0026
      5 C          63.2789   88.2723   12.4007 C.ar    1  UNL1       -0.0025
      6 C          63.1225   86.8009   12.6469 C.ar    1  UNL1        0.0029
      7 C          62.8766   82.3883   13.8915 C.ar    1  UNL1        0.2366
      8 N          62.7953   83.7452   13.2573 N.ar    1  UNL1       -0.1907
      9 C          63.4893   84.7213   14.1604 C.ar    1  UNL1        0.2033
     10 N          63.9994   83.9677   15.3528 N.ar    1  UNL1       -0.0560
     11 O          63.6208   82.5259   15.1867 O.2     1  UNL1       -0.3370
     12 C          62.3127   81.1171   13.3293 C.3     1  UNL1        0.0880
     13 C          62.8575   80.5566   12.0491 C.3     1  UNL1        0.0098
     14 C          63.0282   81.4462   10.8535 C.3     1  UNL1        0.0005
     15 C          64.3118   82.1963   10.6538 C.3     1  UNL1        0.0000
     16 C          64.3370   83.4235    9.7917 C.3     1  UNL1        0.0000
     17 C          62.9144   85.2836    8.6664 C.3     1  UNL1        0.0000
     18 C          63.2005   84.4010    9.8450 C.3     1  UNL1        0.0000
     19 C          64.1146   90.6069   13.1760 C.3     1  UNL1        0.1164
     20 N          65.4118   91.2876   13.4983 N.am    1  UNL1       -0.2993
     21 C          65.6358   91.8672   14.8636 C.2     1  UNL1        0.2394
     22 O          64.5626   91.7660   15.9066 O.2     1  UNL1       -0.2736
     23 H          66.1163   91.3539   12.8137 H       1  UNL1        0.1498
     24 C          66.9331   92.5478   15.1858 C.3     1  UNL1        0.1586
     25 N          67.1773   93.4818   16.3338 N.3     1  UNL1       -0.2893
     26 C          68.6090   93.9252   16.2742 C.3     1  UNL1        0.0715
     27 C          69.2497   93.2652   15.0893 C.3     1  UNL1        0.0482
     28 C          68.2139   92.4139   14.4166 C.3     1  UNL1        0.1350
     29 O          68.4223   91.5759   13.1902 O.3     1  UNL1       -0.3825
     30 H          67.0005   93.0003   17.2155 H       1  UNL1        0.1237
     31 H          69.3402   91.6656   12.8894 H       1  UNL1        0.2104
@<TRIPOS>BOND
     1    17    18    1
     2    18    16    1
     3    16    15    1
     4    15    14    1
     5    14    13    1
     6    13    12    1
     7    12     7    1
     8     7     8   ar
     9     8     9   ar
    10     9     1    1
    11     1     2   ar
    12     2     3   ar
    13     3     4   ar
    14     4    19    1
    15    19    20    1
    16    20    21   am
    17    21    22    2
    18    24    21    1
    19    24    25    1
    20    25    26    1
    21    26    27    1
    22    27    28    1
    23    28    29    1
    24     4     5   ar
    25     5     6   ar
    26     9    10   ar
    27    10    11   ar
    28    11     7   ar
    29     6     1   ar
    30    28    24    1
    31    20    23    1
    32    25    30    1
    33    29    31    1
@<TRIPOS>MOLECULE
*****
 31 33 0 0 0
SMALL
GASTEIGER

@<TRIPOS>ATOM
      1 C          61.2190   86.8236    9.6091 C.ar    1  UNL1        0.0391
      2 C          60.4282   86.3079    8.4435 C.ar    1  UNL1        0.0029
      3 C          59.6806   87.2644    7.5625 C.ar    1  UNL1       -0.0025
      4 C          59.7238   88.7365    7.8471 C.ar    1  UNL1       -0.0026
      5 C          60.5146   89.2521    9.0127 C.ar    1  UNL1       -0.0025
      6 C          61.2622   88.2957    9.8937 C.ar    1  UNL1        0.0029
      7 C          62.8527   84.7477   12.4530 C.ar    1  UNL1        0.2366
      8 N          61.9782   85.8750   11.9901 N.ar    1  UNL1       -0.1907
      9 C          61.9667   85.8671   10.4902 C.ar    1  UNL1        0.2033
     10 N          62.8341   84.7348   10.0260 N.ar    1  UNL1       -0.0560
     11 O          63.3817   84.0429   11.2390 O.2     1  UNL1       -0.3370
     12 C          63.1466   84.3881   13.8793 C.3     1  UNL1        0.0880
     13 C          64.5552   84.4443   14.3919 C.3     1  UNL1        0.0098
     14 C          65.1280   85.7456   14.8699 C.3     1  UNL1        0.0005
     15 C          64.2164   86.8899   15.2007 C.3     1  UNL1        0.0000
     16 C          64.3302   88.1816   14.4466 C.3     1  UNL1        0.0000
     17 C          63.1778   89.4312   16.4114 C.3     1  UNL1        0.0000
     18 C          63.8333   89.4559   15.0625 C.3     1  UNL1        0.0000
     19 C          58.9761   89.6930    6.9660 C.3     1  UNL1        0.1164
     20 N          59.6822   90.3781    5.8338 N.am    1  UNL1       -0.2993
     21 C          58.9325   91.3284    4.9477 C.2     1  UNL1        0.2394
     22 O          57.4768   91.5935    5.1940 O.2     1  UNL1       -0.2736
     23 H          60.6376   90.2041    5.6721 H       1  UNL1        0.1498
     24 C          59.6386   92.0135    3.8155 C.3     1  UNL1        0.1586
     25 N          58.9902   92.8312    2.7380 N.3     1  UNL1       -0.2893
     26 C          60.0679   93.3244    1.8185 C.3     1  UNL1        0.0715
     27 C          61.3823   92.8114    2.3277 C.3     1  UNL1        0.0482
     28 C          61.1170   92.0013    3.5619 C.3     1  UNL1        0.1350
     29 O          62.1488   91.3017    4.3960 O.3     1  UNL1       -0.3825
     30 H          58.4997   93.6236    3.1526 H       1  UNL1        0.1237
     31 H          63.0283   91.4516    4.0152 H       1  UNL1        0.2104
@<TRIPOS>BOND
     1    17    18    1
     2    18    16    1
     3    16    15    1
     4    15    14    1
     5    14    13    1
     6    13    12    1
     7    12     7    1
     8     7     8   ar
     9     8     9   ar
    10     9     1    1
    11     1     2   ar
    12     2     3   ar
    13     3     4   ar
    14     4    19    1
    15    19    20    1
    16    20    21   am
    17    21    22    2
    18    24    21    1
    19    24    25    1
    20    25    26    1
    21    26    27    1
    22    27    28    1
    23    28    29    1
    24     4     5   ar
    25     5     6   ar
    26     9    10   ar
    27    10    11   ar
    28    11     7   ar
    29     6     1   ar
    30    28    24    1
    31    20    23    1
    32    25    30    1
    33    29    31    1
@<TRIPOS>MOLECULE
*****
 31 33 0 0 0
SMALL
GASTEIGER

@<TRIPOS>ATOM
      1 C          62.7453   85.4902   10.5376 C.ar    1  UNL1        0.0391
      2 C          62.3715   86.0315    9.1896 C.ar    1  UNL1        0.0029
      3 C          62.0305   87.4838    9.0328 C.ar    1  UNL1       -0.0025
      4 C          62.0632   88.3947   10.2241 C.ar    1  UNL1       -0.0026
      5 C          62.4370   87.8534   11.5721 C.ar    1  UNL1       -0.0025
      6 C          62.7781   86.4011   11.7289 C.ar    1  UNL1        0.0029
      7 C          63.0979   81.7412   11.4790 C.ar    1  UNL1        0.2366
      8 N          62.4564   83.0841   11.6657 N.ar    1  UNL1       -0.1907
      9 C          63.0864   84.0379   10.6944 C.ar    1  UNL1        0.2033
     10 N          64.1174   83.2844    9.9074 N.ar    1  UNL1       -0.0560
     11 O          64.1245   81.8649   10.3923 O.2     1  UNL1       -0.3370
     12 C          62.7704   80.4935   12.2446 C.3     1  UNL1        0.0880
     13 C          62.7144   80.5261   13.7432 C.3     1  UNL1        0.0098
     14 C          61.8579   81.5414   14.4398 C.3     1  UNL1        0.0005
     15 C          62.4332   82.8733   14.8209 C.3     1  UNL1        0.0000
     16 C          63.9205   83.0624   14.8669 C.3     1  UNL1        0.0000
     17 C          64.3156   85.6192   15.1050 C.3     1  UNL1        0.0000
     18 C          64.5308   84.3353   14.3598 C.3     1  UNL1        0.0000
     19 C          61.7221   89.8470   10.0673 C.3     1  UNL1        0.1164
     20 N          62.8133   90.8762   10.0511 N.am    1  UNL1       -0.2993
     21 C          63.4819   91.2806   11.3316 C.2     1  UNL1        0.2394
     22 O          63.0594   90.6558   12.6282 O.2     1  UNL1       -0.2736
     23 H          63.0905   91.2862    9.2001 H       1  UNL1        0.1498
     24 C          64.5730   92.3097   11.3154 C.3     1  UNL1        0.1586
     25 N          65.0285   93.0930   10.1200 N.3     1  UNL1       -0.2893
     26 C          66.1372   94.0037   10.5575 C.3     1  UNL1        0.0715
     27 C          66.3670   93.7832   12.0234 C.3     1  UNL1        0.0482
     28 C          65.4003   92.7362   12.4917 C.3     1  UNL1        0.1350
     29 O          65.2816   92.2085   13.8908 O.3     1  UNL1       -0.3825
     30 H          64.2533   93.6439    9.7512 H       1  UNL1        0.1237
     31 H          65.9320   92.6500   14.4591 H       1  UNL1        0.2104
@<TRIPOS>BOND
     1    17    18    1
     2    18    16    1
     3    16    15    1
     4    15    14    1
     5    14    13    1
     6    13    12    1
     7    12     7    1
     8     7     8   ar
     9     8     9   ar
    10     9     1    1
    11     1     2   ar
    12     2     3   ar
    13     3     4   ar
    14     4    19    1
    15    19    20    1
    16    20    21   am
    17    21    22    2
    18    24    21    1
    19    24    25    1
    20    25    26    1
    21    26    27    1
    22    27    28    1
    23    28    29    1
    24     4     5   ar
    25     5     6   ar
    26     9    10   ar
    27    10    11   ar
    28    11     7   ar
    29     6     1   ar
    30    28    24    1
    31    20    23    1
    32    25    30    1
    33    29    31    1
@<TRIPOS>MOLECULE
*****
 31 33 0 0 0
SMALL
GASTEIGER

@<TRIPOS>ATOM
      1 C          63.4493   88.5214   12.5984 C.ar    1  UNL1        0.0391
      2 C          64.1917   88.7010   13.8893 C.ar    1  UNL1        0.0029
      3 C          64.7854   90.0347   14.2337 C.ar    1  UNL1       -0.0025
      4 C          64.6369   91.1888   13.2871 C.ar    1  UNL1       -0.0026
      5 C          63.8945   91.0091   11.9961 C.ar    1  UNL1       -0.0025
      6 C          63.3007   89.6755   11.6518 C.ar    1  UNL1        0.0029
      7 C          62.5065   84.7922   12.0787 C.ar    1  UNL1        0.2366
      8 N          63.4203   85.8486   12.6254 N.ar    1  UNL1       -0.1907
      9 C          62.8555   87.1876   12.2539 C.ar    1  UNL1        0.2033
     10 N          61.5926   86.9588   11.4776 N.ar    1  UNL1       -0.0560
     11 O          61.3769   85.4783   11.3692 O.2     1  UNL1       -0.3370
     12 C          62.6901   83.3099   12.2171 C.3     1  UNL1        0.0880
     13 C          62.2313   82.6103   13.4621 C.3     1  UNL1        0.0098
     14 C          62.3667   83.2853   14.7948 C.3     1  UNL1        0.0005
     15 C          63.7097   83.7653   15.2595 C.3     1  UNL1        0.0000
     16 C          63.8381   85.1012   15.9295 C.3     1  UNL1        0.0000
     17 C          62.8522   86.9002   17.5238 C.3     1  UNL1        0.0000
     18 C          62.6650   85.6931   16.6532 C.3     1  UNL1        0.0000
     19 C          65.2307   92.5225   13.6315 C.3     1  UNL1        0.1164
     20 N          65.4412   93.5494   12.5586 N.am    1  UNL1       -0.2993
     21 C          66.6556   93.4788   11.6808 C.2     1  UNL1        0.2394
     22 O          67.6593   92.3814   11.8759 O.2     1  UNL1       -0.2736
     23 H          64.7824   94.2696   12.4305 H       1  UNL1        0.1498
     24 C          66.8661   94.5057   10.6078 C.3     1  UNL1        0.1586
     25 N          67.5508   94.2790    9.2926 N.3     1  UNL1       -0.2893
     26 C          67.5367   95.5727    8.5337 C.3     1  UNL1        0.0715
     27 C          66.8433   96.5990    9.3798 C.3     1  UNL1        0.0482
     28 C          66.4289   95.9395   10.6617 C.3     1  UNL1        0.1350
     29 O          65.7044   96.5983   11.7980 O.3     1  UNL1       -0.3825
     30 H          67.0549   93.5617    8.7634 H       1  UNL1        0.1237
     31 H          65.5396   97.5290   11.5802 H       1  UNL1        0.2104
@<TRIPOS>BOND
     1    17    18    1
     2    18    16    1
     3    16    15    1
     4    15    14    1
     5    14    13    1
     6    13    12    1
     7    12     7    1
     8     7     8   ar
     9     8     9   ar
    10     9     1    1
    11     1     2   ar
    12     2     3   ar
    13     3     4   ar
    14     4    19    1
    15    19    20    1
    16    20    21   am
    17    21    22    2
    18    24    21    1
    19    24    25    1
    20    25    26    1
    21    26    27    1
    22    27    28    1
    23    28    29    1
    24     4     5   ar
    25     5     6   ar
    26     9    10   ar
    27    10    11   ar
    28    11     7   ar
    29     6     1   ar
    30    28    24    1
    31    20    23    1
    32    25    30    1
    33    29    31    1
@<TRIPOS>MOLECULE
*****
 31 33 0 0 0
SMALL
GASTEIGER

@<TRIPOS>ATOM
      1 C          63.4402   88.8155   12.4414 C.ar    1  UNL1        0.0391
      2 C          64.2139   88.9197   13.7222 C.ar    1  UNL1        0.0029
      3 C          64.8784   90.2121   14.0940 C.ar    1  UNL1       -0.0025
      4 C          64.7691   91.4002   13.1850 C.ar    1  UNL1       -0.0026
      5 C          63.9954   91.2960   11.9042 C.ar    1  UNL1       -0.0025
      6 C          63.3309   90.0037   11.5324 C.ar    1  UNL1        0.0029
      7 C          62.2847   85.1549   11.8663 C.ar    1  UNL1        0.2366
      8 N          63.2451   86.1496   12.4478 N.ar    1  UNL1       -0.1907
      9 C          62.7757   87.5231   12.0696 C.ar    1  UNL1        0.2033
     10 N          61.5250   87.3774   11.2543 N.ar    1  UNL1       -0.0560
     11 O          61.2216   85.9138   11.1287 O.2     1  UNL1       -0.3370
     12 C          62.3719   83.6634   11.9991 C.3     1  UNL1        0.0880
     13 C          63.5762   83.0364   12.6369 C.3     1  UNL1        0.0098
     14 C          63.4435   82.3224   13.9493 C.3     1  UNL1        0.0005
     15 C          62.0941   81.8725   14.4254 C.3     1  UNL1        0.0000
     16 C          61.3386   80.8273   13.6594 C.3     1  UNL1        0.0000
     17 C          58.8331   80.4343   14.2234 C.3     1  UNL1        0.0000
     18 C          60.2710   80.0234   14.3406 C.3     1  UNL1        0.0000
     19 C          65.4337   92.6926   13.5568 C.3     1  UNL1        0.1164
     20 N          65.6304   93.7599   12.5213 N.am    1  UNL1       -0.2993
     21 C          66.7536   93.6483   11.5333 C.2     1  UNL1        0.2394
     22 O          67.6800   92.4695   11.5808 O.2     1  UNL1       -0.2736
     23 H          65.0224   94.5335   12.4901 H       1  UNL1        0.1498
     24 C          66.9504   94.7156   10.4978 C.3     1  UNL1        0.1586
     25 N          67.6402   94.5458    9.1767 N.3     1  UNL1       -0.2893
     26 C          67.6080   95.8652    8.4640 C.3     1  UNL1        0.0715
     27 C          66.8983   96.8506    9.3447 C.3     1  UNL1        0.0482
     28 C          66.4919   96.1400   10.6016 C.3     1  UNL1        0.1350
     29 O          65.7562   96.7473   11.7591 O.3     1  UNL1       -0.3825
     30 H          67.1557   93.8405    8.6214 H       1  UNL1        0.1237
     31 H          65.5780   97.6827   11.5741 H       1  UNL1        0.2104
@<TRIPOS>BOND
     1    17    18    1
     2    18    16    1
     3    16    15    1
     4    15    14    1
     5    14    13    1
     6    13    12    1
     7    12     7    1
     8     7     8   ar
     9     8     9   ar
    10     9     1    1
    11     1     2   ar
    12     2     3   ar
    13     3     4   ar
    14     4    19    1
    15    19    20    1
    16    20    21   am
    17    21    22    2
    18    24    21    1
    19    24    25    1
    20    25    26    1
    21    26    27    1
    22    27    28    1
    23    28    29    1
    24     4     5   ar
    25     5     6   ar
    26     9    10   ar
    27    10    11   ar
    28    11     7   ar
    29     6     1   ar
    30    28    24    1
    31    20    23    1
    32    25    30    1
    33    29    31    1
@<TRIPOS>MOLECULE
*****
 31 33 0 0 0
SMALL
GASTEIGER

@<TRIPOS>ATOM
      1 C          59.5885   89.0331    7.1981 C.ar    1  UNL1        0.0391
      2 C          60.2824   89.4258    8.4687 C.ar    1  UNL1        0.0029
      3 C          60.7037   88.3721    9.4496 C.ar    1  UNL1       -0.0025
      4 C          60.4310   86.9258    9.1601 C.ar    1  UNL1       -0.0026
      5 C          59.7371   86.5332    7.8895 C.ar    1  UNL1       -0.0025
      6 C          59.3159   87.5868    6.9086 C.ar    1  UNL1        0.0029
      7 C          59.2386   91.8755    4.5781 C.ar    1  UNL1        0.2366
      8 N          60.0839   90.9768    5.4312 N.ar    1  UNL1       -0.1907
      9 C          59.1672   90.0868    6.2171 C.ar    1  UNL1        0.2033
     10 N          57.7553   90.4355    5.8498 N.ar    1  UNL1       -0.0560
     11 O          57.7994   91.5409    4.8368 O.2     1  UNL1       -0.3370
     12 C          59.7437   92.9245    3.6324 C.3     1  UNL1        0.0880
     13 C          59.6735   92.6958    2.1516 C.3     1  UNL1        0.0098
     14 C          60.6300   93.4024    1.2374 C.3     1  UNL1        0.0005
     15 C          61.7765   92.6523    0.6266 C.3     1  UNL1        0.0000
     16 C          63.1360   92.7171    1.2570 C.3     1  UNL1        0.0000
     17 C          63.2360   90.9774    3.1841 C.3     1  UNL1        0.0000
     18 C          63.3032   92.4001    2.7136 C.3     1  UNL1        0.0000
     19 C          60.8523   85.8722   10.1411 C.3     1  UNL1        0.1164
     20 N          61.6171   86.2570   11.3727 N.am    1  UNL1       -0.2993
     21 C          62.6248   85.3112   11.9559 C.2     1  UNL1        0.2394
     22 O          62.8677   83.9806   11.3074 O.2     1  UNL1       -0.2736
     23 H          61.4577   87.1303   11.7984 H       1  UNL1        0.1498
     24 C          63.3896   85.6960   13.1876 C.3     1  UNL1        0.1586
     25 N          63.7741   87.0897   13.5871 N.3     1  UNL1       -0.2893
     26 C          64.5263   87.0097   14.8824 C.3     1  UNL1        0.0715
     27 C          64.6067   85.5665   15.2834 C.3     1  UNL1        0.0482
     28 C          63.9042   84.7546   14.2359 C.3     1  UNL1        0.1350
     29 O          63.7443   83.2632   14.2367 O.3     1  UNL1       -0.3825
     30 H          62.9363   87.6587   13.7079 H       1  UNL1        0.1237
     31 H          64.1684   82.8929   15.0266 H       1  UNL1        0.2104
@<TRIPOS>BOND
     1    17    18    1
     2    18    16    1
     3    16    15    1
     4    15    14    1
     5    14    13    1
     6    13    12    1
     7    12     7    1
     8     7     8   ar
     9     8     9   ar
    10     9     1    1
    11     1     2   ar
    12     2     3   ar
    13     3     4   ar
    14     4    19    1
    15    19    20    1
    16    20    21   am
    17    21    22    2
    18    24    21    1
    19    24    25    1
    20    25    26    1
    21    26    27    1
    22    27    28    1
    23    28    29    1
    24     4     5   ar
    25     5     6   ar
    26     9    10   ar
    27    10    11   ar
    28    11     7   ar
    29     6     1   ar
    30    28    24    1
    31    20    23    1
    32    25    30    1
    33    29    31    1
@<TRIPOS>MOLECULE
*****
 31 33 0 0 0
SMALL
GASTEIGER

@<TRIPOS>ATOM
      1 C          59.4815   90.1020    6.1575 C.ar    1  UNL1        0.0391
      2 C          58.2089   90.7311    5.6731 C.ar    1  UNL1        0.0029
      3 C          58.2446   91.7313    4.5558 C.ar    1  UNL1       -0.0025
      4 C          59.5529   92.1024    3.9229 C.ar    1  UNL1       -0.0026
      5 C          60.8255   91.4733    4.4073 C.ar    1  UNL1       -0.0025
      6 C          60.7898   90.4731    5.5246 C.ar    1  UNL1        0.0029
      7 C          59.8246   88.0117    9.4099 C.ar    1  UNL1        0.2366
      8 N          60.1265   89.2403    8.6042 N.ar    1  UNL1       -0.1907
      9 C          59.4458   89.1018    7.2748 C.ar    1  UNL1        0.2033
     10 N          58.7231   87.7875    7.2588 N.ar    1  UNL1       -0.0560
     11 O          58.9572   87.1137    8.5784 O.2     1  UNL1       -0.3370
     12 C          60.3056   87.7303   10.8026 C.3     1  UNL1        0.0880
     13 C          61.4300   86.7631   11.0266 C.3     1  UNL1        0.0098
     14 C          61.7030   85.6842   10.0209 C.3     1  UNL1        0.0005
     15 C          62.8361   85.8338    9.0494 C.3     1  UNL1        0.0000
     16 C          62.8624   85.0110    7.7955 C.3     1  UNL1        0.0000
     17 C          61.7086   84.2018    5.6129 C.3     1  UNL1        0.0000
     18 C          61.6579   84.9658    6.9027 C.3     1  UNL1        0.0000
     19 C          59.5886   93.1026    2.8056 C.3     1  UNL1        0.1164
     20 N          60.9044   93.6138    2.2984 N.am    1  UNL1       -0.2993
     21 C          61.4497   93.1157    0.9927 C.2     1  UNL1        0.2394
     22 O          60.6791   92.1064    0.1943 O.2     1  UNL1       -0.2736
     23 H          61.4102   94.2763    2.8224 H       1  UNL1        0.1498
     24 C          62.7654   93.6269    0.4855 C.3     1  UNL1        0.1586
     25 N          62.9739   94.4513   -0.7502 N.3     1  UNL1       -0.2893
     26 C          64.4411   94.7375   -0.8745 C.3     1  UNL1        0.0715
     27 C          65.1395   94.0899    0.2844 C.3     1  UNL1        0.0482
     28 C          64.1038   93.4035    1.1249 C.3     1  UNL1        0.1350
     29 O          64.3614   92.6297    2.3838 O.3     1  UNL1       -0.3825
     30 H          62.4558   95.3266   -0.6738 H       1  UNL1        0.1237
     31 H          65.3115   92.6373    2.5793 H       1  UNL1        0.2104
@<TRIPOS>BOND
     1    17    18    1
     2    18    16    1
     3    16    15    1
     4    15    14    1
     5    14    13    1
     6    13    12    1
     7    12     7    1
     8     7     8   ar
     9     8     9   ar
    10     9     1    1
    11     1     2   ar
    12     2     3   ar
    13     3     4   ar
    14     4    19    1
    15    19    20    1
    16    20    21   am
    17    21    22    2
    18    24    21    1
    19    24    25    1
    20    25    26    1
    21    26    27    1
    22    27    28    1
    23    28    29    1
    24     4     5   ar
    25     5     6   ar
    26     9    10   ar
    27    10    11   ar
    28    11     7   ar
    29     6     1   ar
    30    28    24    1
    31    20    23    1
    32    25    30    1
    33    29    31    1
