@<TRIPOS>MOLECULE
*****
 36 38 0 0 0
SMALL
GASTEIGER

@<TRIPOS>ATOM
      1 C          63.8316   90.8256   12.9879 C.ar    1  UNL1       -0.0022
      2 C          64.3216   91.8873   12.0485 C.ar    1  UNL1        0.0012
      3 C          65.6842   92.4852   12.2374 C.ar    1  UNL1        0.0712
      4 C          66.5569   92.0212   13.3658 C.ar    1  UNL1        0.0038
      5 C          66.0670   90.9595   14.3052 C.ar    1  UNL1       -0.0002
      6 C          64.7043   90.3616   14.1163 C.ar    1  UNL1        0.0005
      7 C          64.2143   89.2998   15.0557 C.ar    1  UNL1        0.0334
      8 C          64.4816   87.8540   14.7585 C.ar    1  UNL1       -0.0009
      9 C          63.9916   86.7922   15.6979 C.ar    1  UNL1       -0.0164
     10 C          63.2343   87.1761   16.9345 C.ar    1  UNL1       -0.0008
     11 C          62.9671   88.6219   17.2317 C.ar    1  UNL1        0.0366
     12 C          63.4571   89.6838   16.2923 C.ar    1  UNL1        0.1386
     13 O          63.1898   91.1295   16.5895 O.3     1  UNL1       -0.4714
     14 C          64.3210   92.0388   16.9686 C.3     1  UNL1        0.2525
     15 C          64.2589   85.3464   15.4007 C.3     1  UNL1        0.0679
     16 C          63.1282   84.3608   15.3936 C.2     1  UNL1        0.0547
     17 O          63.4136   82.8914   15.4924 O.co2   1  UNL1       -0.5488
     18 O          61.7123   84.8443   15.2877 O.co2   1  UNL1       -0.5488
     19 C          66.1742   93.5470   11.2980 C.3     1  UNL1        0.4186
     20 F          66.6642   94.6088   10.3586 F       1  UNL1       -0.1659
     21 F          66.1354   94.5505   12.4121 F       1  UNL1       -0.1659
     22 F          66.2130   92.5434   10.1839 F       1  UNL1       -0.1659
     23 C          62.4689   90.2277   12.7990 C.3     1  UNL1        0.1234
     24 N          62.1128   89.5681   11.4997 N.am    1  UNL1       -0.2419
     25 C          62.4874   88.1357   11.2584 C.2     1  UNL1        0.4054
     26 O          63.2179   87.3631   12.3162 O.2     1  UNL1       -0.2262
     27 C          59.8838   90.4058   10.4607 C.3     1  UNL1        0.0234
     28 C          61.3823   90.3408   10.4418 C.3     1  UNL1        0.0971
     29 O          62.1313   87.4762    9.9590 O.3     1  UNL1       -0.4295
     30 C          61.5792   86.0815    9.9525 C.3     1  UNL1        0.2367
     31 C          62.4541   84.9267   10.3411 C.ar    1  UNL1        0.0213
     32 C          62.3483   84.3348   11.7153 C.ar    1  UNL1       -0.0007
     33 C          63.2231   83.1800   12.1040 C.ar    1  UNL1       -0.0002
     34 C          64.2038   82.6171   11.1184 C.ar    1  UNL1       -0.0000
     35 C          64.3097   83.2090    9.7442 C.ar    1  UNL1       -0.0002
     36 C          63.4348   84.3638    9.3556 C.ar    1  UNL1       -0.0007
@<TRIPOS>UNITY_ATOM_ATTR
17 1
charge -1
@<TRIPOS>BOND
     1    27    28    1
     2    28    24    1
     3    24    23    1
     4    23     1    1
     5     1     2   ar
     6     2     3   ar
     7     3    19    1
     8    19    20    1
     9    19    21    1
    10    19    22    1
    11     3     4   ar
    12     4     5   ar
    13     5     6   ar
    14     6     7    1
    15     7     8   ar
    16     8     9   ar
    17     9    15    1
    18    15    16    1
    19    16    17   ar
    20    16    18   ar
    21     9    10   ar
    22    10    11   ar
    23    11    12   ar
    24    12    13    1
    25    13    14    1
    26    24    25   am
    27    25    26    2
    28    25    29    1
    29    29    30    1
    30    30    31    1
    31    31    32   ar
    32    32    33   ar
    33    33    34   ar
    34    34    35   ar
    35    35    36   ar
    36     6     1   ar
    37    12     7   ar
    38    36    31   ar
@<TRIPOS>MOLECULE
*****
 36 38 0 0 0
SMALL
GASTEIGER

@<TRIPOS>ATOM
      1 C          63.7944   90.8817   13.1332 C.ar    1  UNL1       -0.0022
      2 C          64.2777   92.0066   12.2666 C.ar    1  UNL1        0.0012
      3 C          65.6637   92.5508   12.4479 C.ar    1  UNL1        0.0712
      4 C          66.5663   91.9700   13.4957 C.ar    1  UNL1        0.0038
      5 C          66.0830   90.8451   14.3622 C.ar    1  UNL1       -0.0002
      6 C          64.6971   90.3009   14.1810 C.ar    1  UNL1        0.0005
      7 C          64.2137   89.1759   15.0475 C.ar    1  UNL1        0.0334
      8 C          64.5179   87.7559   14.6719 C.ar    1  UNL1       -0.0009
      9 C          64.0345   86.6310   15.5384 C.ar    1  UNL1       -0.0164
     10 C          63.2470   86.9260   16.7806 C.ar    1  UNL1       -0.0008
     11 C          62.9429   88.3460   17.1562 C.ar    1  UNL1        0.0366
     12 C          63.4262   89.4710   16.2896 C.ar    1  UNL1        0.1386
     13 O          63.1221   90.8910   16.6652 O.3     1  UNL1       -0.4714
     14 C          64.2421   91.8579   16.9120 C.3     1  UNL1        0.2525
     15 C          64.3387   85.2110   15.1628 C.3     1  UNL1        0.0679
     16 C          63.2424   84.1873   15.1500 C.2     1  UNL1        0.0547
     17 O          63.5667   82.7383   15.3633 O.co2   1  UNL1       -0.5488
     18 O          61.8218   84.6125   14.9239 O.co2   1  UNL1       -0.5488
     19 C          66.1470   93.6758   11.5813 C.3     1  UNL1        0.4186
     20 F          66.6304   94.8007   10.7149 F       1  UNL1       -0.1659
     21 F          66.2941   94.5465   12.7938 F       1  UNL1       -0.1659
     22 F          66.0000   92.8050   10.3689 F       1  UNL1       -0.1659
     23 C          62.4083   90.3374   12.9519 C.3     1  UNL1        0.1234
     24 N          61.9629   89.8537   11.6037 N.am    1  UNL1       -0.2419
     25 C          60.5849   89.2877   11.4276 C.2     1  UNL1        0.4054
     26 O          59.6525   89.2055   12.5997 O.2     1  UNL1       -0.2262
     27 C          62.9361   91.1777    9.5914 C.3     1  UNL1        0.0234
     28 C          62.8954   89.9359   10.4317 C.3     1  UNL1        0.0971
     29 O          60.1395   88.8040   10.0795 O.3     1  UNL1       -0.4295
     30 C          59.8477   87.3486    9.8636 C.3     1  UNL1        0.2367
     31 C          60.7389   86.5281    8.9790 C.ar    1  UNL1        0.0213
     32 C          60.2062   85.9608    7.6967 C.ar    1  UNL1       -0.0007
     33 C          61.0974   85.1403    6.8121 C.ar    1  UNL1       -0.0002
     34 C          62.5214   84.8872    7.2097 C.ar    1  UNL1       -0.0000
     35 C          63.0541   85.4545    8.4920 C.ar    1  UNL1       -0.0002
     36 C          62.1629   86.2750    9.3766 C.ar    1  UNL1       -0.0007
@<TRIPOS>UNITY_ATOM_ATTR
17 1
charge -1
@<TRIPOS>BOND
     1    27    28    1
     2    28    24    1
     3    24    23    1
     4    23     1    1
     5     1     2   ar
     6     2     3   ar
     7     3    19    1
     8    19    20    1
     9    19    21    1
    10    19    22    1
    11     3     4   ar
    12     4     5   ar
    13     5     6   ar
    14     6     7    1
    15     7     8   ar
    16     8     9   ar
    17     9    15    1
    18    15    16    1
    19    16    17   ar
    20    16    18   ar
    21     9    10   ar
    22    10    11   ar
    23    11    12   ar
    24    12    13    1
    25    13    14    1
    26    24    25   am
    27    25    26    2
    28    25    29    1
    29    29    30    1
    30    30    31    1
    31    31    32   ar
    32    32    33   ar
    33    33    34   ar
    34    34    35   ar
    35    35    36   ar
    36     6     1   ar
    37    12     7   ar
    38    36    31   ar
@<TRIPOS>MOLECULE
*****
 36 38 0 0 0
SMALL
GASTEIGER

@<TRIPOS>ATOM
      1 C          63.1490   88.1263   12.9176 C.ar    1  UNL1       -0.0022
      2 C          62.8758   86.8187   12.2353 C.ar    1  UNL1        0.0012
      3 C          63.4765   85.5532   12.7715 C.ar    1  UNL1        0.0712
      4 C          64.3503   85.5952   13.9899 C.ar    1  UNL1        0.0038
      5 C          64.6235   86.9028   14.6722 C.ar    1  UNL1       -0.0002
      6 C          64.0228   88.1683   14.1361 C.ar    1  UNL1        0.0005
      7 C          64.2960   89.4760   14.8184 C.ar    1  UNL1        0.0334
      8 C          65.3564   90.3931   14.2850 C.ar    1  UNL1       -0.0009
      9 C          65.6296   91.7007   14.9673 C.ar    1  UNL1       -0.0164
     10 C          64.8424   92.0913   16.1829 C.ar    1  UNL1       -0.0008
     11 C          63.7819   91.1742   16.7162 C.ar    1  UNL1        0.0366
     12 C          63.5087   89.8665   16.0339 C.ar    1  UNL1        0.1386
     13 O          62.4483   88.9495   16.5673 O.3     1  UNL1       -0.4714
     14 C          62.8252   87.8110   17.4684 C.3     1  UNL1        0.2525
     15 C          66.6901   92.6177   14.4339 C.3     1  UNL1        0.0679
     16 C          67.2411   92.4054   13.0551 C.2     1  UNL1        0.0547
     17 O          68.5975   91.7905   12.8758 O.co2   1  UNL1       -0.5488
     18 O          66.4357   92.8081   11.8554 O.co2   1  UNL1       -0.5488
     19 C          63.2033   84.2455   12.0892 C.3     1  UNL1        0.4186
     20 F          62.9301   82.9379   11.4069 F       1  UNL1       -0.1659
     21 F          61.8839   84.7723   11.6080 F       1  UNL1       -0.1659
     22 F          64.5227   83.7188   12.5704 F       1  UNL1       -0.1659
     23 C          62.5483   89.3920   12.3815 C.3     1  UNL1        0.1234
     24 N          61.9336   89.4095   11.0133 N.am    1  UNL1       -0.2419
     25 C          60.5882   88.7857   10.7875 C.2     1  UNL1        0.4054
     26 O          59.8576   88.1444   11.9298 O.2     1  UNL1       -0.2262
     27 C          63.3557   91.3674   10.0676 C.3     1  UNL1        0.0234
     28 C          62.6642   90.0509    9.8710 C.3     1  UNL1        0.0971
     29 O          59.9735   88.8033    9.4193 O.3     1  UNL1       -0.4295
     30 C          59.5737   87.5166    8.7602 C.3     1  UNL1        0.2367
     31 C          60.6258   86.5641    8.2745 C.ar    1  UNL1        0.0213
     32 C          61.9625   86.5134    8.9532 C.ar    1  UNL1       -0.0007
     33 C          63.0146   85.5609    8.4676 C.ar    1  UNL1       -0.0002
     34 C          62.7301   84.6592    7.3032 C.ar    1  UNL1       -0.0000
     35 C          61.3934   84.7099    6.6244 C.ar    1  UNL1       -0.0002
     36 C          60.3413   85.6624    7.1101 C.ar    1  UNL1       -0.0007
@<TRIPOS>UNITY_ATOM_ATTR
17 1
charge -1
@<TRIPOS>BOND
     1    27    28    1
     2    28    24    1
     3    24    23    1
     4    23     1    1
     5     1     2   ar
     6     2     3   ar
     7     3    19    1
     8    19    20    1
     9    19    21    1
    10    19    22    1
    11     3     4   ar
    12     4     5   ar
    13     5     6   ar
    14     6     7    1
    15     7     8   ar
    16     8     9   ar
    17     9    15    1
    18    15    16    1
    19    16    17   ar
    20    16    18   ar
    21     9    10   ar
    22    10    11   ar
    23    11    12   ar
    24    12    13    1
    25    13    14    1
    26    24    25   am
    27    25    26    2
    28    25    29    1
    29    29    30    1
    30    30    31    1
    31    31    32   ar
    32    32    33   ar
    33    33    34   ar
    34    34    35   ar
    35    35    36   ar
    36     6     1   ar
    37    12     7   ar
    38    36    31   ar
@<TRIPOS>MOLECULE
*****
 36 38 0 0 0
SMALL
GASTEIGER

@<TRIPOS>ATOM
      1 C          62.4017   87.7656   11.3685 C.ar    1  UNL1       -0.0022
      2 C          61.6414   88.5326   10.3276 C.ar    1  UNL1        0.0012
      3 C          60.8263   87.8007    9.3030 C.ar    1  UNL1        0.0712
      4 C          60.7714   86.3018    9.3193 C.ar    1  UNL1        0.0038
      5 C          61.5317   85.5348   10.3603 C.ar    1  UNL1       -0.0002
      6 C          62.3468   86.2667   11.3849 C.ar    1  UNL1        0.0005
      7 C          63.1072   85.4997   12.4259 C.ar    1  UNL1        0.0334
      8 C          63.1376   85.9878   13.8439 C.ar    1  UNL1       -0.0009
      9 C          63.8979   85.2208   14.8849 C.ar    1  UNL1       -0.0164
     10 C          64.6278   83.9658   14.5079 C.ar    1  UNL1       -0.0008
     11 C          64.5974   83.4777   13.0899 C.ar    1  UNL1        0.0366
     12 C          63.8371   84.2447   12.0489 C.ar    1  UNL1        0.1386
     13 O          63.8066   83.7566   10.6308 O.3     1  UNL1       -0.4714
     14 C          63.8547   82.2852   10.3429 C.3     1  UNL1        0.2525
     15 C          63.9283   85.7089   16.3030 C.3     1  UNL1        0.0679
     16 C          62.8611   86.6389   16.7992 C.2     1  UNL1        0.0547
     17 O          61.5352   86.0924   17.2391 O.co2   1  UNL1       -0.5488
     18 O          63.1197   88.1153   16.8554 O.co2   1  UNL1       -0.5488
     19 C          60.0659   88.5677    8.2619 C.3     1  UNL1        0.4186
     20 F          59.3056   89.3346    7.2209 F       1  UNL1       -0.1659
     21 F          59.9623   87.3278    7.4242 F       1  UNL1       -0.1659
     22 F          60.1695   89.8076    9.0997 F       1  UNL1       -0.1659
     23 C          63.2168   88.4975   12.3932 C.3     1  UNL1        0.1234
     24 N          63.4239   89.9779   12.2689 N.am    1  UNL1       -0.2419
     25 C          64.3050   90.6967   13.2473 C.2     1  UNL1        0.4054
     26 O          64.9790   89.9351   14.3497 O.2     1  UNL1       -0.2262
     27 C          63.5726   91.4887   10.1605 C.3     1  UNL1        0.0234
     28 C          62.7498   90.7396   11.1664 C.3     1  UNL1        0.0971
     29 O          64.5120   92.1772   13.1230 O.3     1  UNL1       -0.4295
     30 C          65.9021   92.7385   13.0734 C.3     1  UNL1        0.2367
     31 C          66.4527   93.2650   11.7812 C.ar    1  UNL1        0.0213
     32 C          67.2576   92.3681   10.8881 C.ar    1  UNL1       -0.0007
     33 C          67.8082   92.8946    9.5960 C.ar    1  UNL1       -0.0002
     34 C          67.5539   94.3180    9.1969 C.ar    1  UNL1       -0.0000
     35 C          66.7489   95.2148   10.0900 C.ar    1  UNL1       -0.0002
     36 C          66.1983   94.6884   11.3821 C.ar    1  UNL1       -0.0007
@<TRIPOS>UNITY_ATOM_ATTR
17 1
charge -1
@<TRIPOS>BOND
     1    27    28    1
     2    28    24    1
     3    24    23    1
     4    23     1    1
     5     1     2   ar
     6     2     3   ar
     7     3    19    1
     8    19    20    1
     9    19    21    1
    10    19    22    1
    11     3     4   ar
    12     4     5   ar
    13     5     6   ar
    14     6     7    1
    15     7     8   ar
    16     8     9   ar
    17     9    15    1
    18    15    16    1
    19    16    17   ar
    20    16    18   ar
    21     9    10   ar
    22    10    11   ar
    23    11    12   ar
    24    12    13    1
    25    13    14    1
    26    24    25   am
    27    25    26    2
    28    25    29    1
    29    29    30    1
    30    30    31    1
    31    31    32   ar
    32    32    33   ar
    33    33    34   ar
    34    34    35   ar
    35    35    36   ar
    36     6     1   ar
    37    12     7   ar
    38    36    31   ar
@<TRIPOS>MOLECULE
*****
 36 38 0 0 0
SMALL
GASTEIGER

@<TRIPOS>ATOM
      1 C          63.3479   90.5294   12.3852 C.ar    1  UNL1       -0.0022
      2 C          64.2736   91.5755   12.9316 C.ar    1  UNL1        0.0012
      3 C          64.9568   92.5326   12.0004 C.ar    1  UNL1        0.0712
      4 C          64.7141   92.4436   10.5229 C.ar    1  UNL1        0.0038
      5 C          63.7884   91.3975    9.9765 C.ar    1  UNL1       -0.0002
      6 C          63.1052   90.4404   10.9077 C.ar    1  UNL1        0.0005
      7 C          62.1794   89.3942   10.3613 C.ar    1  UNL1        0.0334
      8 C          62.7278   88.0805    9.8885 C.ar    1  UNL1       -0.0009
      9 C          61.8021   87.0344    9.3421 C.ar    1  UNL1       -0.0164
     10 C          60.3279   87.3019    9.2686 C.ar    1  UNL1       -0.0008
     11 C          59.7795   88.6156    9.7414 C.ar    1  UNL1        0.0366
     12 C          60.7053   89.6617   10.2878 C.ar    1  UNL1        0.1386
     13 O          60.1570   90.9754   10.7606 O.3     1  UNL1       -0.4714
     14 C          58.9423   91.0082   11.6402 C.3     1  UNL1        0.2525
     15 C          62.3504   85.7207    8.8693 C.3     1  UNL1        0.0679
     16 C          62.7987   84.6929    9.8655 C.2     1  UNL1        0.0547
     17 O          63.9176   83.7543    9.5230 O.co2   1  UNL1       -0.5488
     18 O          62.1282   84.6036   11.2044 O.co2   1  UNL1       -0.5488
     19 C          65.8826   93.5788   12.5468 C.3     1  UNL1        0.4186
     20 F          66.8084   94.6249   13.0931 F       1  UNL1       -0.1659
     21 F          65.6858   94.4002   11.3073 F       1  UNL1       -0.1659
     22 F          66.0794   92.7573   13.7863 F       1  UNL1       -0.1659
     23 C          62.6647   89.5721   13.3164 C.3     1  UNL1        0.1234
     24 N          63.4703   88.7874   14.3090 N.am    1  UNL1       -0.2419
     25 C          63.8784   87.3780   13.9969 C.2     1  UNL1        0.4054
     26 O          63.4807   86.7535   12.6924 O.2     1  UNL1       -0.2262
     27 C          63.1053   89.0873   16.8637 C.3     1  UNL1        0.0234
     28 C          63.8679   89.4119   15.6135 C.3     1  UNL1        0.0971
     29 O          64.6840   86.5933   14.9895 O.3     1  UNL1       -0.4295
     30 C          64.0883   85.3869   15.6526 C.3     1  UNL1        0.2367
     31 C          63.7396   84.1778   14.8363 C.ar    1  UNL1        0.0213
     32 C          62.4925   83.4017   15.1404 C.ar    1  UNL1       -0.0007
     33 C          62.1438   82.1926   14.3241 C.ar    1  UNL1       -0.0002
     34 C          63.0420   81.7596   13.2036 C.ar    1  UNL1       -0.0000
     35 C          64.2891   82.5357   12.8995 C.ar    1  UNL1       -0.0002
     36 C          64.6378   83.7448   13.7158 C.ar    1  UNL1       -0.0007
@<TRIPOS>UNITY_ATOM_ATTR
17 1
charge -1
@<TRIPOS>BOND
     1    27    28    1
     2    28    24    1
     3    24    23    1
     4    23     1    1
     5     1     2   ar
     6     2     3   ar
     7     3    19    1
     8    19    20    1
     9    19    21    1
    10    19    22    1
    11     3     4   ar
    12     4     5   ar
    13     5     6   ar
    14     6     7    1
    15     7     8   ar
    16     8     9   ar
    17     9    15    1
    18    15    16    1
    19    16    17   ar
    20    16    18   ar
    21     9    10   ar
    22    10    11   ar
    23    11    12   ar
    24    12    13    1
    25    13    14    1
    26    24    25   am
    27    25    26    2
    28    25    29    1
    29    29    30    1
    30    30    31    1
    31    31    32   ar
    32    32    33   ar
    33    33    34   ar
    34    34    35   ar
    35    35    36   ar
    36     6     1   ar
    37    12     7   ar
    38    36    31   ar
@<TRIPOS>MOLECULE
*****
 36 38 0 0 0
SMALL
GASTEIGER

@<TRIPOS>ATOM
      1 C          61.8242   85.8134   10.4477 C.ar    1  UNL1       -0.0022
      2 C          61.5937   85.7828    8.9658 C.ar    1  UNL1        0.0012
      3 C          62.3667   84.8270    8.1062 C.ar    1  UNL1        0.0712
      4 C          63.3702   83.9019    8.7285 C.ar    1  UNL1        0.0038
      5 C          63.6007   83.9325   10.2103 C.ar    1  UNL1       -0.0002
      6 C          62.8277   84.8883   11.0699 C.ar    1  UNL1        0.0005
      7 C          63.0581   84.9190   12.5518 C.ar    1  UNL1        0.0334
      8 C          63.5878   86.1622   13.2029 C.ar    1  UNL1       -0.0009
      9 C          63.8183   86.1929   14.6847 C.ar    1  UNL1       -0.0164
     10 C          63.5190   84.9803   15.5156 C.ar    1  UNL1       -0.0008
     11 C          62.9894   83.7371   14.8646 C.ar    1  UNL1        0.0366
     12 C          62.7589   83.7065   13.3826 C.ar    1  UNL1        0.1386
     13 O          62.2292   82.4632   12.7316 O.3     1  UNL1       -0.4714
     14 C          61.9767   81.2349   13.5547 C.3     1  UNL1        0.2525
     15 C          64.3479   87.4361   15.3358 C.3     1  UNL1        0.0679
     16 C          63.4274   88.3211   16.1227 C.2     1  UNL1        0.0547
     17 O          62.8830   89.5751   15.5052 O.co2   1  UNL1       -0.5488
     18 O          63.0512   87.9522   17.5271 O.co2   1  UNL1       -0.5488
     19 C          62.1362   84.7964    6.6243 C.3     1  UNL1        0.4186
     20 F          61.9058   84.7657    5.1425 F       1  UNL1       -0.1659
     21 F          63.5859   84.4794    6.4055 F       1  UNL1       -0.1659
     22 F          60.6866   85.1133    6.8431 F       1  UNL1       -0.1659
     23 C          61.0512   86.7692   11.3074 C.3     1  UNL1        0.1234
     24 N          60.9935   88.2241   10.9467 N.am    1  UNL1       -0.2419
     25 C          62.0603   89.1600   11.4326 C.2     1  UNL1        0.4054
     26 O          63.1846   88.6411   12.2791 O.2     1  UNL1       -0.2262
     27 C          60.1020   89.0507    8.6507 C.3     1  UNL1        0.0234
     28 C          59.8692   88.7430   10.1002 C.3     1  UNL1        0.0971
     29 O          62.0027   90.6149   11.0719 O.3     1  UNL1       -0.4295
     30 C          63.1677   91.2641   10.3855 C.3     1  UNL1        0.2367
     31 C          64.3297   91.7642   11.1915 C.ar    1  UNL1        0.0213
     32 C          64.3666   91.5385   12.6739 C.ar    1  UNL1       -0.0007
     33 C          65.5286   92.0386   13.4800 C.ar    1  UNL1       -0.0002
     34 C          66.6536   92.7644   12.8037 C.ar    1  UNL1       -0.0000
     35 C          66.6166   92.9902   11.3212 C.ar    1  UNL1       -0.0002
     36 C          65.4547   92.4900   10.5152 C.ar    1  UNL1       -0.0007
@<TRIPOS>UNITY_ATOM_ATTR
17 1
charge -1
@<TRIPOS>BOND
     1    27    28    1
     2    28    24    1
     3    24    23    1
     4    23     1    1
     5     1     2   ar
     6     2     3   ar
     7     3    19    1
     8    19    20    1
     9    19    21    1
    10    19    22    1
    11     3     4   ar
    12     4     5   ar
    13     5     6   ar
    14     6     7    1
    15     7     8   ar
    16     8     9   ar
    17     9    15    1
    18    15    16    1
    19    16    17   ar
    20    16    18   ar
    21     9    10   ar
    22    10    11   ar
    23    11    12   ar
    24    12    13    1
    25    13    14    1
    26    24    25   am
    27    25    26    2
    28    25    29    1
    29    29    30    1
    30    30    31    1
    31    31    32   ar
    32    32    33   ar
    33    33    34   ar
    34    34    35   ar
    35    35    36   ar
    36     6     1   ar
    37    12     7   ar
    38    36    31   ar
@<TRIPOS>MOLECULE
*****
 36 38 0 0 0
SMALL
GASTEIGER

@<TRIPOS>ATOM
      1 C          62.6114   87.6679   11.5080 C.ar    1  UNL1       -0.0022
      2 C          61.9249   88.5363   10.4959 C.ar    1  UNL1        0.0012
      3 C          60.9289   87.9385    9.5470 C.ar    1  UNL1        0.0712
      4 C          60.6193   86.4721    9.6102 C.ar    1  UNL1        0.0038
      5 C          61.3058   85.6036   10.6223 C.ar    1  UNL1       -0.0002
      6 C          62.3018   86.2015   11.5712 C.ar    1  UNL1        0.0005
      7 C          62.9883   85.3330   12.5834 C.ar    1  UNL1        0.0334
      8 C          63.0218   85.7447   14.0254 C.ar    1  UNL1       -0.0009
      9 C          63.7083   84.8763   15.0376 C.ar    1  UNL1       -0.0164
     10 C          64.3613   83.5961   14.6078 C.ar    1  UNL1       -0.0008
     11 C          64.3278   83.1843   13.1658 C.ar    1  UNL1        0.0366
     12 C          63.6413   84.0528   12.1536 C.ar    1  UNL1        0.1386
     13 O          63.6077   83.6411   10.7116 O.3     1  UNL1       -0.4714
     14 C          63.9952   82.2456   10.3209 C.3     1  UNL1        0.2525
     15 C          63.7418   85.2881   16.4796 C.3     1  UNL1        0.0679
     16 C          62.6297   86.1184   17.0485 C.2     1  UNL1        0.0547
     17 O          62.9448   87.3033   17.9126 O.co2   1  UNL1       -0.5488
     18 O          61.2024   85.7637   16.7534 O.co2   1  UNL1       -0.5488
     19 C          60.2423   88.8070    8.5348 C.3     1  UNL1        0.4186
     20 F          59.5559   89.6754    7.5226 F       1  UNL1       -0.1659
     21 F          60.1425   87.6383    7.5998 F       1  UNL1       -0.1659
     22 F          60.3422   89.9756    9.4698 F       1  UNL1       -0.1659
     23 C          63.6074   88.2657   12.4570 C.3     1  UNL1        0.1234
     24 N          63.4040   89.6570   12.9795 N.am    1  UNL1       -0.2419
     25 C          63.6343   89.9538   14.4317 C.2     1  UNL1        0.4054
     26 O          64.0678   88.8595   15.3614 O.2     1  UNL1       -0.2262
     27 C          63.9929   91.5136   11.2602 C.3     1  UNL1        0.0234
     28 C          62.9705   90.7513   12.0498 C.3     1  UNL1        0.0971
     29 O          63.4309   91.3451   14.9542 O.3     1  UNL1       -0.4295
     30 C          64.4358   91.9493   15.8896 C.3     1  UNL1        0.2367
     31 C          65.8610   92.1170   15.4529 C.ar    1  UNL1        0.0213
     32 C          66.8603   92.7443   16.3790 C.ar    1  UNL1       -0.0007
     33 C          68.2855   92.9120   15.9423 C.ar    1  UNL1       -0.0002
     34 C          68.7113   92.4525   14.5794 C.ar    1  UNL1       -0.0000
     35 C          67.7119   91.8253   13.6533 C.ar    1  UNL1       -0.0002
     36 C          66.2868   91.6575   14.0900 C.ar    1  UNL1       -0.0007
@<TRIPOS>UNITY_ATOM_ATTR
17 1
charge -1
@<TRIPOS>BOND
     1    27    28    1
     2    28    24    1
     3    24    23    1
     4    23     1    1
     5     1     2   ar
     6     2     3   ar
     7     3    19    1
     8    19    20    1
     9    19    21    1
    10    19    22    1
    11     3     4   ar
    12     4     5   ar
    13     5     6   ar
    14     6     7    1
    15     7     8   ar
    16     8     9   ar
    17     9    15    1
    18    15    16    1
    19    16    17   ar
    20    16    18   ar
    21     9    10   ar
    22    10    11   ar
    23    11    12   ar
    24    12    13    1
    25    13    14    1
    26    24    25   am
    27    25    26    2
    28    25    29    1
    29    29    30    1
    30    30    31    1
    31    31    32   ar
    32    32    33   ar
    33    33    34   ar
    34    34    35   ar
    35    35    36   ar
    36     6     1   ar
    37    12     7   ar
    38    36    31   ar
@<TRIPOS>MOLECULE
*****
 36 38 0 0 0
SMALL
GASTEIGER

@<TRIPOS>ATOM
      1 C          63.7344   88.0045   13.3296 C.ar    1  UNL1       -0.0022
      2 C          63.1031   87.0527   12.3573 C.ar    1  UNL1        0.0012
      3 C          62.4336   87.5770   11.1217 C.ar    1  UNL1        0.0712
      4 C          62.3954   89.0532   10.8584 C.ar    1  UNL1        0.0038
      5 C          63.0266   90.0051   11.8307 C.ar    1  UNL1       -0.0002
      6 C          63.6961   89.4807   13.0663 C.ar    1  UNL1        0.0005
      7 C          64.3274   90.4326   14.0387 C.ar    1  UNL1        0.0334
      8 C          65.5509   91.2058   13.6445 C.ar    1  UNL1       -0.0009
      9 C          66.1822   92.1576   14.6168 C.ar    1  UNL1       -0.0164
     10 C          65.5900   92.3363   15.9834 C.ar    1  UNL1       -0.0008
     11 C          64.3666   91.5632   16.3776 C.ar    1  UNL1        0.0366
     12 C          63.7353   90.6113   15.4052 C.ar    1  UNL1        0.1386
     13 O          62.5118   89.8381   15.7994 O.3     1  UNL1       -0.4714
     14 C          62.5210   89.0043   17.0463 C.3     1  UNL1        0.2525
     15 C          67.4056   92.9307   14.2226 C.3     1  UNL1        0.0679
     16 C          68.7490   92.5333   14.7586 C.2     1  UNL1        0.0547
     17 O          68.9712   92.4507   16.2398 O.co2   1  UNL1       -0.5488
     18 O          69.8704   92.2183   13.8134 O.co2   1  UNL1       -0.5488
     19 C          61.8023   86.6252   10.1493 C.3     1  UNL1        0.4186
     20 F          61.1711   85.6734    9.1769 F       1  UNL1       -0.1659
     21 F          62.6453   87.1931    9.0462 F       1  UNL1       -0.1659
     22 F          60.9594   86.0572   11.2524 F       1  UNL1       -0.1659
     23 C          64.4039   87.4802   14.5653 C.3     1  UNL1        0.1234
     24 N          64.0767   86.1060   15.0700 N.am    1  UNL1       -0.2419
     25 C          65.0727   84.9946   14.9189 C.2     1  UNL1        0.4054
     26 O          66.3959   85.2574   14.2632 O.2     1  UNL1       -0.2262
     27 C          62.6570   85.7793   17.2212 C.3     1  UNL1        0.0234
     28 C          62.7534   85.8433   15.7257 C.3     1  UNL1        0.0971
     29 O          64.7455   83.6205   15.4235 O.3     1  UNL1       -0.4295
     30 C          63.6028   82.8544   14.8258 C.3     1  UNL1        0.2367
     31 C          63.5971   82.5386   13.3594 C.ar    1  UNL1        0.0213
     32 C          64.2322   83.4864   12.3856 C.ar    1  UNL1       -0.0007
     33 C          64.2265   83.1706   10.9192 C.ar    1  UNL1       -0.0002
     34 C          63.5856   81.9071   10.4267 C.ar    1  UNL1       -0.0000
     35 C          62.9504   80.9593   11.4004 C.ar    1  UNL1       -0.0002
     36 C          62.9562   81.2751   12.8668 C.ar    1  UNL1       -0.0007
@<TRIPOS>UNITY_ATOM_ATTR
17 1
charge -1
@<TRIPOS>BOND
     1    27    28    1
     2    28    24    1
     3    24    23    1
     4    23     1    1
     5     1     2   ar
     6     2     3   ar
     7     3    19    1
     8    19    20    1
     9    19    21    1
    10    19    22    1
    11     3     4   ar
    12     4     5   ar
    13     5     6   ar
    14     6     7    1
    15     7     8   ar
    16     8     9   ar
    17     9    15    1
    18    15    16    1
    19    16    17   ar
    20    16    18   ar
    21     9    10   ar
    22    10    11   ar
    23    11    12   ar
    24    12    13    1
    25    13    14    1
    26    24    25   am
    27    25    26    2
    28    25    29    1
    29    29    30    1
    30    30    31    1
    31    31    32   ar
    32    32    33   ar
    33    33    34   ar
    34    34    35   ar
    35    35    36   ar
    36     6     1   ar
    37    12     7   ar
    38    36    31   ar
@<TRIPOS>MOLECULE
*****
 36 38 0 0 0
SMALL
GASTEIGER

@<TRIPOS>ATOM
      1 C          61.4763   88.0739    9.1931 C.ar    1  UNL1       -0.0022
      2 C          60.6708   89.0483    8.3858 C.ar    1  UNL1        0.0012
      3 C          59.5923   88.5517    7.4691 C.ar    1  UNL1        0.0712
      4 C          59.3194   87.0808    7.3597 C.ar    1  UNL1        0.0038
      5 C          60.1249   86.1065    8.1670 C.ar    1  UNL1       -0.0002
      6 C          61.2034   86.6030    9.0837 C.ar    1  UNL1        0.0005
      7 C          62.0090   85.6286    9.8910 C.ar    1  UNL1        0.0334
      8 C          61.7474   85.4750   11.3600 C.ar    1  UNL1       -0.0009
      9 C          62.5529   84.5007   12.1673 C.ar    1  UNL1       -0.0164
     10 C          63.6201   83.6800   11.5057 C.ar    1  UNL1       -0.0008
     11 C          63.8816   83.8336   10.0367 C.ar    1  UNL1        0.0366
     12 C          63.0760   84.8080    9.2293 C.ar    1  UNL1        0.1386
     13 O          63.3376   84.9617    7.7603 O.3     1  UNL1       -0.4714
     14 C          62.4103   84.3319    6.7635 C.3     1  UNL1        0.2525
     15 C          62.2914   84.3470   13.6363 C.3     1  UNL1        0.0679
     16 C          62.5863   83.0440   14.3184 C.2     1  UNL1        0.0547
     17 O          63.7602   82.9315   15.2453 O.co2   1  UNL1       -0.5488
     18 O          61.7072   81.8535   14.0735 O.co2   1  UNL1       -0.5488
     19 C          58.7868   89.5261    6.6618 C.3     1  UNL1        0.4186
     20 F          57.9812   90.5004    5.8545 F       1  UNL1       -0.1659
     21 F          57.5228   88.8633    7.1232 F       1  UNL1       -0.1659
     22 F          60.0508   90.1889    6.2003 F       1  UNL1       -0.1659
     23 C          62.5548   88.5704   10.1099 C.3     1  UNL1        0.1234
     24 N          62.1990   89.4103   11.3007 N.am    1  UNL1       -0.2419
     25 C          62.7596   89.0732   12.6506 C.2     1  UNL1        0.4054
     26 O          63.6760   87.8964   12.8096 O.2     1  UNL1       -0.2262
     27 C          59.8294   90.4585   11.4904 C.3     1  UNL1        0.0234
     28 C          61.2826   90.5871   11.1417 C.3     1  UNL1        0.0971
     29 O          62.4039   89.9130   13.8415 O.3     1  UNL1       -0.4295
     30 C          63.4879   90.5034   14.6937 C.3     1  UNL1        0.2367
     31 C          64.6782   91.1513   14.0508 C.ar    1  UNL1        0.0213
     32 C          66.0079   91.1333   14.7447 C.ar    1  UNL1       -0.0007
     33 C          67.1982   91.7812   14.1018 C.ar    1  UNL1       -0.0002
     34 C          67.0589   92.4471   12.7650 C.ar    1  UNL1       -0.0000
     35 C          65.7292   92.4651   12.0711 C.ar    1  UNL1       -0.0002
     36 C          64.5389   91.8172   12.7140 C.ar    1  UNL1       -0.0007
@<TRIPOS>UNITY_ATOM_ATTR
17 1
charge -1
@<TRIPOS>BOND
     1    27    28    1
     2    28    24    1
     3    24    23    1
     4    23     1    1
     5     1     2   ar
     6     2     3   ar
     7     3    19    1
     8    19    20    1
     9    19    21    1
    10    19    22    1
    11     3     4   ar
    12     4     5   ar
    13     5     6   ar
    14     6     7    1
    15     7     8   ar
    16     8     9   ar
    17     9    15    1
    18    15    16    1
    19    16    17   ar
    20    16    18   ar
    21     9    10   ar
    22    10    11   ar
    23    11    12   ar
    24    12    13    1
    25    13    14    1
    26    24    25   am
    27    25    26    2
    28    25    29    1
    29    29    30    1
    30    30    31    1
    31    31    32   ar
    32    32    33   ar
    33    33    34   ar
    34    34    35   ar
    35    35    36   ar
    36     6     1   ar
    37    12     7   ar
    38    36    31   ar
