@<TRIPOS>MOLECULE
*****
 37 40 0 0 0
SMALL
GASTEIGER

@<TRIPOS>ATOM
      1 O          61.6315   87.4111   10.9710 O.3     1  UNL1       -0.4741
      2 C          62.4716   88.5730   11.4115 C.ar    1  UNL1        0.1513
      3 C          63.3235   88.4593   12.6408 C.ar    1  UNL1        0.0688
      4 C          64.1637   89.6214   13.0812 C.ar    1  UNL1        0.1620
      5 F          65.0156   89.5077   14.3105 F       1  UNL1       -0.2026
      6 C          64.1518   90.8971   12.2923 C.ar    1  UNL1        0.1535
      7 C          63.2998   91.0108   11.0629 C.ar    1  UNL1        0.0369
      8 C          62.4598   89.8488   10.6225 C.ar    1  UNL1        0.0930
      9 CL         61.6078   89.9625    9.3932 Cl      1  UNL1       -0.0790
     10 S          64.9919   92.0591   12.7327 S.O2    1  UNL1        0.0772
     11 O          64.4422   91.9298   14.1223 O.2     1  UNL1       -0.1498
     12 O          65.5415   92.1884   11.3431 O.2     1  UNL1       -0.1498
     13 N          65.8320   93.2211   13.1732 N.pl3   1  UNL1       -0.1936
     14 H          65.5646   94.1390   12.9382 H       1  UNL1        0.1758
     15 C          67.0795   92.9846   13.9717 C.ar    1  UNL1        0.1786
     16 N          68.2863   92.2192   13.5159 N.ar    1  UNL1       -0.2214
     17 C          69.2920   92.2335   14.6288 C.ar    1  UNL1        0.1079
     18 C          68.7067   93.0078   15.7725 C.ar    1  UNL1        0.0588
     19 S          67.3393   93.4720   15.3664 S.2     1  UNL1       -0.0497
     20 C          61.6656   86.1256   11.7433 C.3     1  UNL1        0.2110
     21 C          62.8144   84.6329    9.9538 C.3     1  UNL1        0.0620
     22 C          63.8072   83.5677    9.5937 C.3     1  UNL1        0.0208
     23 C          64.6439   82.9300   10.6628 C.3     1  UNL1        0.0271
     24 C          64.4879   83.3574   12.0921 C.2     1  UNL1       -0.0302
     25 C          63.4951   84.4226   12.4522 C.2     1  UNL1       -0.0218
     26 C          62.6584   85.0603   11.3831 C.3     1  UNL1        0.0801
     27 C          63.3391   84.8501   13.8816 C.ar    1  UNL1       -0.0040
     28 C          62.2793   84.2254   14.7398 C.ar    1  UNL1        0.0020
     29 C          62.1232   84.6529   16.1692 C.ar    1  UNL1        0.0296
     30 C          63.0270   85.7050   16.7402 C.ar    1  UNL1        0.1401
     31 F          62.8710   86.1325   18.1695 F       1  UNL1       -0.2042
     32 C          64.0869   86.3297   15.8820 C.ar    1  UNL1        0.0296
     33 C          64.2429   85.9022   14.4527 C.ar    1  UNL1        0.0020
     34 N          61.9776   85.2707    8.8846 N.3     1  UNL1       -0.2982
     35 H          61.0771   84.7917    8.8906 H       1  UNL1        0.1232
     36 C          61.6734   84.5551    6.4057 C.3     1  UNL1        0.0185
     37 C          62.4551   85.2773    7.4627 C.3     1  UNL1        0.0686
@<TRIPOS>BOND
     1    36    37    1
     2    37    34    1
     3    21    34    1
     4    21    22    1
     5    22    23    1
     6    23    24    1
     7    24    25    2
     8    25    27    1
     9    27    28   ar
    10    28    29   ar
    11    29    30   ar
    12    30    31    1
    13    30    32   ar
    14    32    33   ar
    15    25    26    1
    16    26    20    1
    17    20     1    1
    18     1     2    1
    19     2     3   ar
    20     3     4   ar
    21     4     5    1
    22     4     6   ar
    23     6    10    1
    24    10    11    2
    25    10    12    2
    26    10    13    1
    27    13    15    1
    28    15    16   ar
    29    16    17   ar
    30    17    18   ar
    31    18    19   ar
    32     6     7   ar
    33     7     8   ar
    34     8     9    1
    35    26    21    1
    36     8     2   ar
    37    33    27   ar
    38    19    15   ar
    39    34    35    1
    40    13    14    1
@<TRIPOS>MOLECULE
*****
 37 40 0 0 0
SMALL
GASTEIGER

@<TRIPOS>ATOM
      1 O          64.2819   89.8492   15.0599 O.3     1  UNL1       -0.4741
      2 C          63.9755   88.3826   15.1300 C.ar    1  UNL1        0.1513
      3 C          64.2247   87.5065   13.9382 C.ar    1  UNL1        0.0688
      4 C          63.9182   86.0398   14.0084 C.ar    1  UNL1        0.1620
      5 F          64.1675   85.1637   12.8166 F       1  UNL1       -0.2026
      6 C          63.3626   85.4492   15.2703 C.ar    1  UNL1        0.1535
      7 C          63.1134   86.3253   16.4621 C.ar    1  UNL1        0.0369
      8 C          63.4198   87.7919   16.3919 C.ar    1  UNL1        0.0930
      9 CL         63.1706   88.6680   17.5837 Cl      1  UNL1       -0.0790
     10 S          63.0562   83.9825   15.3404 S.O2    1  UNL1        0.0772
     11 O          61.5883   84.2868   15.2904 O.2     1  UNL1       -0.1498
     12 O          64.5242   83.6782   15.3903 O.2     1  UNL1       -0.1498
     13 N          62.7498   82.5158   15.4105 N.pl3   1  UNL1       -0.1936
     14 H          62.5738   82.0907   16.2809 H       1  UNL1        0.1758
     15 C          62.7114   81.6967   14.1544 C.ar    1  UNL1        0.1786
     16 N          62.6372   80.2004   14.0794 N.ar    1  UNL1       -0.2214
     17 C          62.6205   79.8091   12.6315 C.ar    1  UNL1        0.1079
     18 C          62.6844   81.0635   11.8116 C.ar    1  UNL1        0.0588
     19 S          62.7406   82.2302   12.7527 S.2     1  UNL1       -0.0497
     20 C          63.5293   90.7279   14.1050 C.3     1  UNL1        0.2110
     21 C          65.3913   92.3897   13.3830 C.3     1  UNL1        0.0620
     22 C          66.1269   93.1275   12.3039 C.3     1  UNL1        0.0208
     23 C          65.7362   92.9412   10.8677 C.3     1  UNL1        0.0271
     24 C          64.6099   92.0172   10.5106 C.2     1  UNL1       -0.0302
     25 C          63.8743   91.2794   11.5897 C.2     1  UNL1       -0.0218
     26 C          64.2650   91.4657   13.0259 C.3     1  UNL1        0.0801
     27 C          62.7479   90.3553   11.2326 C.ar    1  UNL1       -0.0040
     28 C          62.9973   88.8814   11.1098 C.ar    1  UNL1        0.0020
     29 C          61.8709   87.9573   10.7528 C.ar    1  UNL1        0.0296
     30 C          60.4952   88.5073   10.5185 C.ar    1  UNL1        0.1401
     31 F          59.3688   87.5833   10.1615 F       1  UNL1       -0.2042
     32 C          60.2458   89.9813   10.6414 C.ar    1  UNL1        0.0296
     33 C          61.3722   90.9053   10.9984 C.ar    1  UNL1        0.0020
     34 N          65.7820   92.5760   14.8192 N.3     1  UNL1       -0.2982
     35 H          65.0829   93.1900   15.2373 H       1  UNL1        0.1232
     36 C          68.0834   92.3640   16.0059 C.3     1  UNL1        0.0185
     37 C          67.1241   93.1507   15.1628 C.3     1  UNL1        0.0686
@<TRIPOS>BOND
     1    36    37    1
     2    37    34    1
     3    21    34    1
     4    21    22    1
     5    22    23    1
     6    23    24    1
     7    24    25    2
     8    25    27    1
     9    27    28   ar
    10    28    29   ar
    11    29    30   ar
    12    30    31    1
    13    30    32   ar
    14    32    33   ar
    15    25    26    1
    16    26    20    1
    17    20     1    1
    18     1     2    1
    19     2     3   ar
    20     3     4   ar
    21     4     5    1
    22     4     6   ar
    23     6    10    1
    24    10    11    2
    25    10    12    2
    26    10    13    1
    27    13    15    1
    28    15    16   ar
    29    16    17   ar
    30    17    18   ar
    31    18    19   ar
    32     6     7   ar
    33     7     8   ar
    34     8     9    1
    35    26    21    1
    36     8     2   ar
    37    33    27   ar
    38    19    15   ar
    39    34    35    1
    40    13    14    1
@<TRIPOS>MOLECULE
*****
 37 40 0 0 0
SMALL
GASTEIGER

@<TRIPOS>ATOM
      1 O          63.2703   87.8077   13.8845 O.3     1  UNL1       -0.4741
      2 C          63.9136   89.1309   13.5923 C.ar    1  UNL1        0.1513
      3 C          64.9798   89.6638   14.5030 C.ar    1  UNL1        0.0688
      4 C          65.6231   90.9870   14.2108 C.ar    1  UNL1        0.1620
      5 F          66.6892   91.5200   15.1215 F       1  UNL1       -0.2026
      6 C          65.2003   91.7772   13.0080 C.ar    1  UNL1        0.1535
      7 C          64.1341   91.2443   12.0973 C.ar    1  UNL1        0.0369
      8 C          63.4908   89.9211   12.3895 C.ar    1  UNL1        0.0930
      9 CL         62.4247   89.3882   11.4788 Cl      1  UNL1       -0.0790
     10 S          65.8436   93.1004   12.7159 S.O2    1  UNL1        0.0772
     11 O          65.6737   93.5000   14.1516 O.2     1  UNL1       -0.1498
     12 O          66.0135   92.7008   11.2801 O.2     1  UNL1       -0.1498
     13 N          66.4869   94.4236   12.4238 N.pl3   1  UNL1       -0.1936
     14 H          66.8139   94.9858   13.1629 H       1  UNL1        0.1758
     15 C          66.6320   94.8902   11.0056 C.ar    1  UNL1        0.1786
     16 N          67.6979   94.4617   10.0411 N.ar    1  UNL1       -0.2214
     17 C          67.4613   95.1739    8.7423 C.ar    1  UNL1        0.1079
     18 C          66.2493   96.0426    8.9041 C.ar    1  UNL1        0.0588
     19 S          65.7366   95.8673   10.3029 S.2     1  UNL1       -0.0497
     20 C          63.8503   86.5489   13.3109 C.3     1  UNL1        0.2110
     21 C          63.4030   84.8751   15.2470 C.3     1  UNL1        0.0620
     22 C          62.9134   83.5393   15.7223 C.3     1  UNL1        0.0208
     23 C          62.3814   82.5415   14.7368 C.3     1  UNL1        0.0271
     24 C          62.3390   82.8794   13.2760 C.2     1  UNL1       -0.0302
     25 C          62.8286   84.2152   12.8007 C.2     1  UNL1       -0.0218
     26 C          63.3606   85.2130   13.7862 C.3     1  UNL1        0.0801
     27 C          62.7862   84.5531   11.3399 C.ar    1  UNL1       -0.0040
     28 C          63.6673   83.8177   10.3740 C.ar    1  UNL1        0.0020
     29 C          63.6249   84.1557    8.9132 C.ar    1  UNL1        0.0296
     30 C          62.7014   85.2291    8.4182 C.ar    1  UNL1        0.1401
     31 F          62.6590   85.5671    6.9574 F       1  UNL1       -0.2042
     32 C          61.8203   85.9646    9.3841 C.ar    1  UNL1        0.0296
     33 C          61.8628   85.6266   10.8449 C.ar    1  UNL1        0.0020
     34 N          63.9351   85.8730   16.2325 N.3     1  UNL1       -0.2982
     35 H          64.6475   85.3928   16.7823 H       1  UNL1        0.1232
     36 C          62.9345   88.0282   17.2832 C.3     1  UNL1        0.0185
     37 C          63.0060   86.5318   17.2086 C.3     1  UNL1        0.0686
@<TRIPOS>BOND
     1    36    37    1
     2    37    34    1
     3    21    34    1
     4    21    22    1
     5    22    23    1
     6    23    24    1
     7    24    25    2
     8    25    27    1
     9    27    28   ar
    10    28    29   ar
    11    29    30   ar
    12    30    31    1
    13    30    32   ar
    14    32    33   ar
    15    25    26    1
    16    26    20    1
    17    20     1    1
    18     1     2    1
    19     2     3   ar
    20     3     4   ar
    21     4     5    1
    22     4     6   ar
    23     6    10    1
    24    10    11    2
    25    10    12    2
    26    10    13    1
    27    13    15    1
    28    15    16   ar
    29    16    17   ar
    30    17    18   ar
    31    18    19   ar
    32     6     7   ar
    33     7     8   ar
    34     8     9    1
    35    26    21    1
    36     8     2   ar
    37    33    27   ar
    38    19    15   ar
    39    34    35    1
    40    13    14    1
@<TRIPOS>MOLECULE
*****
 37 40 0 0 0
SMALL
GASTEIGER

@<TRIPOS>ATOM
      1 O          60.6941   88.0872   11.5727 O.3     1  UNL1       -0.4741
      2 C          61.7866   89.1035   11.7260 C.ar    1  UNL1        0.1513
      3 C          62.8408   88.9186   12.7769 C.ar    1  UNL1        0.0688
      4 C          63.9334   89.9350   12.9302 C.ar    1  UNL1        0.1620
      5 F          64.9876   89.7501   13.9812 F       1  UNL1       -0.2026
      6 C          63.9717   91.1361   12.0326 C.ar    1  UNL1        0.1535
      7 C          62.9175   91.3210   10.9817 C.ar    1  UNL1        0.0369
      8 C          61.8249   90.3047   10.8284 C.ar    1  UNL1        0.0930
      9 CL         60.7707   90.4896    9.7774 Cl      1  UNL1       -0.0790
     10 S          65.0642   92.1524   12.1860 S.O2    1  UNL1        0.0772
     11 O          65.4068   92.0032   10.7333 O.2     1  UNL1       -0.1498
     12 O          64.7216   92.3015   13.6386 O.2     1  UNL1       -0.1498
     13 N          66.1568   93.1687   12.3392 N.pl3   1  UNL1       -0.1936
     14 H          66.6330   93.2540   13.1967 H       1  UNL1        0.1758
     15 C          66.5238   94.0550   11.1861 C.ar    1  UNL1        0.1786
     16 N          67.6474   93.8244   10.2195 N.ar    1  UNL1       -0.2214
     17 C          67.6497   94.9544    9.2331 C.ar    1  UNL1        0.1079
     18 C          66.5274   95.8835    9.5900 C.ar    1  UNL1        0.0588
     19 S          65.8315   95.3277   10.7970 S.2     1  UNL1       -0.0497
     20 C          61.0308   86.6265   11.5180 C.3     1  UNL1        0.2110
     21 C          61.1366   86.5105    8.9247 C.3     1  UNL1        0.0620
     22 C          61.7166   85.9208    7.6734 C.3     1  UNL1        0.0208
     23 C          62.7708   84.8575    7.7640 C.3     1  UNL1        0.0271
     24 C          63.2449   84.3839    9.1059 C.2     1  UNL1       -0.0302
     25 C          62.6649   84.9736   10.3572 C.2     1  UNL1       -0.0218
     26 C          61.6108   86.0369   10.2666 C.3     1  UNL1        0.0801
     27 C          63.1391   84.5000   11.6993 C.ar    1  UNL1       -0.0040
     28 C          63.5119   85.4958   12.7573 C.ar    1  UNL1        0.0020
     29 C          63.9860   85.0222   14.0993 C.ar    1  UNL1        0.0296
     30 C          64.0873   83.5528   14.3832 C.ar    1  UNL1        0.1401
     31 F          64.5614   83.0791   15.7252 F       1  UNL1       -0.2042
     32 C          63.7145   82.5570   13.3252 C.ar    1  UNL1        0.0296
     33 C          63.2403   83.0306   11.9832 C.ar    1  UNL1        0.0020
     34 N          60.0825   87.5737    8.8341 N.3     1  UNL1       -0.2982
     35 H          59.4048   87.3801    9.5715 H       1  UNL1        0.1232
     36 C          59.2959   89.0786    6.8677 C.3     1  UNL1        0.0185
     37 C          59.3027   87.7505    7.5650 C.3     1  UNL1        0.0686
@<TRIPOS>BOND
     1    36    37    1
     2    37    34    1
     3    21    34    1
     4    21    22    1
     5    22    23    1
     6    23    24    1
     7    24    25    2
     8    25    27    1
     9    27    28   ar
    10    28    29   ar
    11    29    30   ar
    12    30    31    1
    13    30    32   ar
    14    32    33   ar
    15    25    26    1
    16    26    20    1
    17    20     1    1
    18     1     2    1
    19     2     3   ar
    20     3     4   ar
    21     4     5    1
    22     4     6   ar
    23     6    10    1
    24    10    11    2
    25    10    12    2
    26    10    13    1
    27    13    15    1
    28    15    16   ar
    29    16    17   ar
    30    17    18   ar
    31    18    19   ar
    32     6     7   ar
    33     7     8   ar
    34     8     9    1
    35    26    21    1
    36     8     2   ar
    37    33    27   ar
    38    19    15   ar
    39    34    35    1
    40    13    14    1
@<TRIPOS>MOLECULE
*****
 37 40 0 0 0
SMALL
GASTEIGER

@<TRIPOS>ATOM
      1 O          61.3442   88.1928   11.0516 O.3     1  UNL1       -0.4741
      2 C          62.3616   89.2722   11.2745 C.ar    1  UNL1        0.1513
      3 C          63.2224   89.2494   12.5027 C.ar    1  UNL1        0.0688
      4 C          64.2399   90.3288   12.7257 C.ar    1  UNL1        0.1620
      5 F          65.1007   90.3060   13.9539 F       1  UNL1       -0.2026
      6 C          64.3965   91.4310   11.7204 C.ar    1  UNL1        0.1535
      7 C          63.5357   91.4539   10.4922 C.ar    1  UNL1        0.0369
      8 C          62.5183   90.3745   10.2692 C.ar    1  UNL1        0.0930
      9 CL         61.6575   90.3973    9.0410 Cl      1  UNL1       -0.0790
     10 S          65.4139   92.5104   11.9434 S.O2    1  UNL1        0.0772
     11 O          65.8828   92.3611   10.5264 O.2     1  UNL1       -0.1498
     12 O          64.9450   92.6597   13.3603 O.2     1  UNL1       -0.1498
     13 N          66.4314   93.5898   12.1663 N.pl3   1  UNL1       -0.1936
     14 H          66.9509   93.6116   13.0023 H       1  UNL1        0.1758
     15 C          66.6573   94.6361   11.1155 C.ar    1  UNL1        0.1786
     16 N          67.6440   94.5553    9.9885 N.ar    1  UNL1       -0.2214
     17 C          67.5327   95.8162    9.1836 C.ar    1  UNL1        0.1079
     18 C          66.4772   96.6763    9.8131 C.ar    1  UNL1        0.0588
     19 S          65.9361   95.9470   11.0071 S.2     1  UNL1       -0.0497
     20 C          61.4946   86.8672   11.7372 C.3     1  UNL1        0.2110
     21 C          62.2762   85.5935    9.6119 C.3     1  UNL1        0.0620
     22 C          63.0914   84.5076    8.9745 C.3     1  UNL1        0.0208
     23 C          63.9401   83.6095    9.8249 C.3     1  UNL1        0.0271
     24 C          63.9736   83.7973   11.3127 C.2     1  UNL1       -0.0302
     25 C          63.1585   84.8832   11.9501 C.2     1  UNL1       -0.0218
     26 C          62.3098   85.7813   11.0997 C.3     1  UNL1        0.0801
     27 C          63.1920   85.0710   13.4380 C.ar    1  UNL1       -0.0040
     28 C          64.1374   86.0633   14.0475 C.ar    1  UNL1        0.0020
     29 C          64.1709   86.2511   15.5354 C.ar    1  UNL1        0.0296
     30 C          63.2590   85.4467   16.4136 C.ar    1  UNL1        0.1401
     31 F          63.2925   85.6345   17.9014 F       1  UNL1       -0.2042
     32 C          62.3135   84.4544   15.8040 C.ar    1  UNL1        0.0296
     33 C          62.2801   84.2666   14.3162 C.ar    1  UNL1        0.0020
     34 N          61.4275   86.4916    8.7616 N.3     1  UNL1       -0.2982
     35 H          61.0554   87.2147    9.3772 H       1  UNL1        0.1232
     36 C          59.0810   86.7945    7.6882 C.3     1  UNL1        0.0185
     37 C          60.2627   85.9263    8.0042 C.3     1  UNL1        0.0686
@<TRIPOS>BOND
     1    36    37    1
     2    37    34    1
     3    21    34    1
     4    21    22    1
     5    22    23    1
     6    23    24    1
     7    24    25    2
     8    25    27    1
     9    27    28   ar
    10    28    29   ar
    11    29    30   ar
    12    30    31    1
    13    30    32   ar
    14    32    33   ar
    15    25    26    1
    16    26    20    1
    17    20     1    1
    18     1     2    1
    19     2     3   ar
    20     3     4   ar
    21     4     5    1
    22     4     6   ar
    23     6    10    1
    24    10    11    2
    25    10    12    2
    26    10    13    1
    27    13    15    1
    28    15    16   ar
    29    16    17   ar
    30    17    18   ar
    31    18    19   ar
    32     6     7   ar
    33     7     8   ar
    34     8     9    1
    35    26    21    1
    36     8     2   ar
    37    33    27   ar
    38    19    15   ar
    39    34    35    1
    40    13    14    1
@<TRIPOS>MOLECULE
*****
 37 40 0 0 0
SMALL
GASTEIGER

@<TRIPOS>ATOM
      1 O          60.5385   87.9378   11.5575 O.3     1  UNL1       -0.4741
      2 C          61.6153   88.9683   11.7265 C.ar    1  UNL1        0.1513
      3 C          62.7031   88.7576   12.7376 C.ar    1  UNL1        0.0688
      4 C          63.7799   89.7882   12.9065 C.ar    1  UNL1        0.1620
      5 F          64.8677   89.5775   13.9176 F       1  UNL1       -0.2026
      6 C          63.7688   91.0295   12.0645 C.ar    1  UNL1        0.1535
      7 C          62.6809   91.2402   11.0534 C.ar    1  UNL1        0.0369
      8 C          61.6042   90.2097   10.8845 C.ar    1  UNL1        0.0930
      9 CL         60.5164   90.4204    9.8734 Cl      1  UNL1       -0.0790
     10 S          64.8455   92.0600   12.2335 S.O2    1  UNL1        0.0772
     11 O          64.5458   92.1324   13.7014 O.2     1  UNL1       -0.1498
     12 O          65.1452   91.9876   10.7656 O.2     1  UNL1       -0.1498
     13 N          65.9223   93.0906   12.4025 N.pl3   1  UNL1       -0.1936
     14 H          66.0094   93.8230   11.7505 H       1  UNL1        0.1758
     15 C          66.8663   93.0052   13.5651 C.ar    1  UNL1        0.1786
     16 N          66.8840   93.9177   14.7554 N.ar    1  UNL1       -0.2214
     17 C          67.9871   93.4687   15.6674 C.ar    1  UNL1        0.1079
     18 C          68.6511   92.2786   15.0407 C.ar    1  UNL1        0.0588
     19 S          67.9585   91.9921   13.7414 S.2     1  UNL1       -0.0497
     20 C          60.8988   86.4845   11.4674 C.3     1  UNL1        0.2110
     21 C          61.0310   86.4098    8.8737 C.3     1  UNL1        0.0620
     22 C          61.6493   85.8668    7.6197 C.3     1  UNL1        0.0208
     23 C          62.7539   84.8555    7.7051 C.3     1  UNL1        0.0271
     24 C          63.2401   84.3872    9.0446 C.2     1  UNL1       -0.0302
     25 C          62.6217   84.9302   10.2987 C.2     1  UNL1       -0.0218
     26 C          61.5171   85.9415   10.2132 C.3     1  UNL1        0.0801
     27 C          63.1079   84.4620   11.6383 C.ar    1  UNL1       -0.0040
     28 C          63.1950   82.9939   11.9333 C.ar    1  UNL1        0.0020
     29 C          63.6812   82.5256   13.2729 C.ar    1  UNL1        0.0296
     30 C          64.0802   83.5255   14.3174 C.ar    1  UNL1        0.1401
     31 F          64.5664   83.0573   15.6569 F       1  UNL1       -0.2042
     32 C          63.9930   84.9937   14.0223 C.ar    1  UNL1        0.0296
     33 C          63.5069   85.4619   12.6828 C.ar    1  UNL1        0.0020
     34 N          59.9264   87.4210    8.7883 N.3     1  UNL1       -0.2982
     35 H          59.1971   87.1156    9.4327 H       1  UNL1        0.1232
     36 C          59.2979   89.0684    6.8802 C.3     1  UNL1        0.0185
     37 C          59.2571   87.6913    7.4734 C.3     1  UNL1        0.0686
@<TRIPOS>BOND
     1    36    37    1
     2    37    34    1
     3    21    34    1
     4    21    22    1
     5    22    23    1
     6    23    24    1
     7    24    25    2
     8    25    27    1
     9    27    28   ar
    10    28    29   ar
    11    29    30   ar
    12    30    31    1
    13    30    32   ar
    14    32    33   ar
    15    25    26    1
    16    26    20    1
    17    20     1    1
    18     1     2    1
    19     2     3   ar
    20     3     4   ar
    21     4     5    1
    22     4     6   ar
    23     6    10    1
    24    10    11    2
    25    10    12    2
    26    10    13    1
    27    13    15    1
    28    15    16   ar
    29    16    17   ar
    30    17    18   ar
    31    18    19   ar
    32     6     7   ar
    33     7     8   ar
    34     8     9    1
    35    26    21    1
    36     8     2   ar
    37    33    27   ar
    38    19    15   ar
    39    34    35    1
    40    13    14    1
@<TRIPOS>MOLECULE
*****
 37 40 0 0 0
SMALL
GASTEIGER

@<TRIPOS>ATOM
      1 O          62.2898   88.4747   13.0112 O.3     1  UNL1       -0.4741
      2 C          63.2262   89.6208   12.7676 C.ar    1  UNL1        0.1513
      3 C          63.1048   90.4350   11.5137 C.ar    1  UNL1        0.0688
      4 C          64.0413   91.5812   11.2700 C.ar    1  UNL1        0.1620
      5 F          63.9198   92.3954   10.0162 F       1  UNL1       -0.2026
      6 C          65.0992   91.9131   12.2803 C.ar    1  UNL1        0.1535
      7 C          65.2207   91.0988   13.5342 C.ar    1  UNL1        0.0369
      8 C          64.2843   89.9527   13.7778 C.ar    1  UNL1        0.0930
      9 CL         64.4057   89.1384   15.0317 Cl      1  UNL1       -0.0790
     10 S          66.0357   93.0592   12.0366 S.O2    1  UNL1        0.0772
     11 O          66.4486   92.4444   10.7322 O.2     1  UNL1       -0.1498
     12 O          65.6228   93.6739   13.3410 O.2     1  UNL1       -0.1498
     13 N          66.9722   94.2053   11.7929 N.pl3   1  UNL1       -0.1936
     14 H          67.6722   94.4177   12.4518 H       1  UNL1        0.1758
     15 C          66.8422   95.0278   10.5452 C.ar    1  UNL1        0.1786
     16 N          67.8116   95.0530    9.4008 N.ar    1  UNL1       -0.2214
     17 C          67.2885   96.0102    8.3712 C.ar    1  UNL1        0.1079
     18 C          65.9958   96.5767    8.8793 C.ar    1  UNL1        0.0588
     19 S          65.7200   95.9695   10.2229 S.2     1  UNL1       -0.0497
     20 C          61.6394   87.7782   11.8528 C.3     1  UNL1        0.2110
     21 C          63.0853   85.6505   12.2170 C.3     1  UNL1        0.0620
     22 C          63.6556   84.3633   11.6996 C.3     1  UNL1        0.0208
     23 C          63.3506   83.9165   10.3005 C.3     1  UNL1        0.0271
     24 C          62.4751   84.7570    9.4189 C.2     1  UNL1       -0.0302
     25 C          61.9048   86.0442    9.9363 C.2     1  UNL1       -0.0218
     26 C          62.2098   86.4909   11.3354 C.3     1  UNL1        0.0801
     27 C          61.0293   86.8847    9.0547 C.ar    1  UNL1       -0.0040
     28 C          61.0931   88.3807    9.1416 C.ar    1  UNL1        0.0020
     29 C          60.2177   89.2213    8.2599 C.ar    1  UNL1        0.0296
     30 C          59.2784   88.5656    7.2915 C.ar    1  UNL1        0.1401
     31 F          58.4029   89.4060    6.4099 F       1  UNL1       -0.2042
     32 C          59.2146   87.0694    7.2047 C.ar    1  UNL1        0.0296
     33 C          60.0900   86.2290    8.0863 C.ar    1  UNL1        0.0020
     34 N          63.3903   86.0973   13.6160 N.3     1  UNL1       -0.2982
     35 H          63.8893   86.9836   13.5399 H       1  UNL1        0.1232
     36 C          63.9885   85.2758   16.0071 C.3     1  UNL1        0.0185
     37 C          64.2014   85.2204   14.5233 C.3     1  UNL1        0.0686
@<TRIPOS>BOND
     1    36    37    1
     2    37    34    1
     3    21    34    1
     4    21    22    1
     5    22    23    1
     6    23    24    1
     7    24    25    2
     8    25    27    1
     9    27    28   ar
    10    28    29   ar
    11    29    30   ar
    12    30    31    1
    13    30    32   ar
    14    32    33   ar
    15    25    26    1
    16    26    20    1
    17    20     1    1
    18     1     2    1
    19     2     3   ar
    20     3     4   ar
    21     4     5    1
    22     4     6   ar
    23     6    10    1
    24    10    11    2
    25    10    12    2
    26    10    13    1
    27    13    15    1
    28    15    16   ar
    29    16    17   ar
    30    17    18   ar
    31    18    19   ar
    32     6     7   ar
    33     7     8   ar
    34     8     9    1
    35    26    21    1
    36     8     2   ar
    37    33    27   ar
    38    19    15   ar
    39    34    35    1
    40    13    14    1
@<TRIPOS>MOLECULE
*****
 37 40 0 0 0
SMALL
GASTEIGER

@<TRIPOS>ATOM
      1 O          62.5329   87.0685   12.6841 O.3     1  UNL1       -0.4741
      2 C          63.1432   88.4300   12.5304 C.ar    1  UNL1        0.1513
      3 C          62.8121   89.2695   11.3323 C.ar    1  UNL1        0.0688
      4 C          63.4225   90.6311   11.1787 C.ar    1  UNL1        0.1620
      5 F          63.0914   91.4706    9.9805 F       1  UNL1       -0.2026
      6 C          64.3640   91.1531   12.2232 C.ar    1  UNL1        0.1535
      7 C          64.6951   90.3136   13.4213 C.ar    1  UNL1        0.0369
      8 C          64.0848   88.9521   13.5750 C.ar    1  UNL1        0.0930
      9 CL         64.4159   88.1126   14.7732 Cl      1  UNL1       -0.0790
     10 S          64.9744   92.5146   12.0695 S.O2    1  UNL1        0.0772
     11 O          64.8506   92.4019   10.5789 O.2     1  UNL1       -0.1498
     12 O          65.0981   92.6274   13.5601 O.2     1  UNL1       -0.1498
     13 N          65.5847   93.8762   11.9158 N.pl3   1  UNL1       -0.1936
     14 H          65.3763   94.5854   12.5661 H       1  UNL1        0.1758
     15 C          66.5128   94.1573   10.7713 C.ar    1  UNL1        0.1786
     16 N          67.6607   93.2959   10.3351 N.ar    1  UNL1       -0.2214
     17 C          68.3132   93.9553    9.1563 C.ar    1  UNL1        0.1079
     18 C          67.5685   95.2242    8.8640 C.ar    1  UNL1        0.0588
     19 S          66.4558   95.3491    9.8622 S.2     1  UNL1       -0.0497
     20 C          61.5829   86.5508   11.6451 C.3     1  UNL1        0.2110
     21 C          61.7820   86.3591    9.0617 C.3     1  UNL1        0.0620
     22 C          62.3099   85.6526    7.8484 C.3     1  UNL1        0.0208
     23 C          63.1666   84.4312    8.0051 C.3     1  UNL1        0.0271
     24 C          63.4953   83.9164    9.3750 C.2     1  UNL1       -0.0302
     25 C          62.9675   84.6230   10.5883 C.2     1  UNL1       -0.0218
     26 C          62.1108   85.8443   10.4317 C.3     1  UNL1        0.0801
     27 C          63.2962   84.1082   11.9584 C.ar    1  UNL1       -0.0040
     28 C          62.4268   83.0656   12.5964 C.ar    1  UNL1        0.0020
     29 C          62.7556   82.5508   13.9665 C.ar    1  UNL1        0.0296
     30 C          63.9537   83.0786   14.6984 C.ar    1  UNL1        0.1401
     31 F          64.2825   82.5639   16.0684 F       1  UNL1       -0.2042
     32 C          64.8232   84.1213   14.0603 C.ar    1  UNL1        0.0296
     33 C          64.4944   84.6360   12.6904 C.ar    1  UNL1        0.0020
     34 N          60.9254   87.5804    8.9050 N.3     1  UNL1       -0.2982
     35 H          60.5710   87.8124    9.8329 H       1  UNL1        0.1232
     36 C          59.2643   88.8206    7.3390 C.3     1  UNL1        0.0185
     37 C          59.7420   87.5533    7.9838 C.3     1  UNL1        0.0686
@<TRIPOS>BOND
     1    36    37    1
     2    37    34    1
     3    21    34    1
     4    21    22    1
     5    22    23    1
     6    23    24    1
     7    24    25    2
     8    25    27    1
     9    27    28   ar
    10    28    29   ar
    11    29    30   ar
    12    30    31    1
    13    30    32   ar
    14    32    33   ar
    15    25    26    1
    16    26    20    1
    17    20     1    1
    18     1     2    1
    19     2     3   ar
    20     3     4   ar
    21     4     5    1
    22     4     6   ar
    23     6    10    1
    24    10    11    2
    25    10    12    2
    26    10    13    1
    27    13    15    1
    28    15    16   ar
    29    16    17   ar
    30    17    18   ar
    31    18    19   ar
    32     6     7   ar
    33     7     8   ar
    34     8     9    1
    35    26    21    1
    36     8     2   ar
    37    33    27   ar
    38    19    15   ar
    39    34    35    1
    40    13    14    1
@<TRIPOS>MOLECULE
*****
 37 40 0 0 0
SMALL
GASTEIGER

@<TRIPOS>ATOM
      1 O          63.1903   85.8984   13.2064 O.3     1  UNL1       -0.4741
      2 C          63.6587   87.2800   13.5553 C.ar    1  UNL1        0.1513
      3 C          63.4266   88.4139   12.6011 C.ar    1  UNL1        0.0688
      4 C          63.8950   89.7956   12.9501 C.ar    1  UNL1        0.1620
      5 F          63.6629   90.9295   11.9959 F       1  UNL1       -0.2026
      6 C          64.5954   90.0433   14.2531 C.ar    1  UNL1        0.1535
      7 C          64.8275   88.9094   15.2073 C.ar    1  UNL1        0.0369
      8 C          64.3592   87.5278   14.8584 C.ar    1  UNL1        0.0930
      9 CL         64.5913   86.3939   15.8125 Cl      1  UNL1       -0.0790
     10 S          65.0638   91.4249   14.6020 S.O2    1  UNL1        0.0772
     11 O          64.0265   91.5036   15.6827 O.2     1  UNL1       -0.1498
     12 O          66.1010   91.3461   13.5214 O.2     1  UNL1       -0.1498
     13 N          65.5322   92.8065   14.9510 N.pl3   1  UNL1       -0.1936
     14 H          64.9069   93.5654   14.9014 H       1  UNL1        0.1758
     15 C          66.9531   93.0319   15.3753 C.ar    1  UNL1        0.1786
     16 N          67.6872   94.3395   15.3393 N.ar    1  UNL1       -0.2214
     17 C          69.0773   94.1050   15.8519 C.ar    1  UNL1        0.1079
     18 C          69.2023   92.6525   16.2049 C.ar    1  UNL1        0.0588
     19 S          67.8895   91.9892   15.9103 S.2     1  UNL1       -0.0497
     20 C          62.0660   85.7115   12.2312 C.3     1  UNL1        0.2110
     21 C          63.1146   84.3085   10.3123 C.3     1  UNL1        0.0620
     22 C          63.4104   84.1184    8.8542 C.3     1  UNL1        0.0208
     23 C          62.9534   85.1411    7.8566 C.3     1  UNL1        0.0271
     24 C          62.2006   86.3540    8.3172 C.2     1  UNL1       -0.0302
     25 C          61.9048   86.5441    9.7754 C.2     1  UNL1       -0.0218
     26 C          62.3618   85.5214   10.7729 C.3     1  UNL1        0.0801
     27 C          61.1520   87.7570   10.2361 C.ar    1  UNL1       -0.0040
     28 C          61.5225   89.1132    9.7131 C.ar    1  UNL1        0.0020
     29 C          60.7697   90.3261   10.1738 C.ar    1  UNL1        0.0296
     30 C          59.6464   90.1828   11.1574 C.ar    1  UNL1        0.1401
     31 F          58.8936   91.3956   11.6181 F       1  UNL1       -0.2042
     32 C          59.2759   88.8266   11.6804 C.ar    1  UNL1        0.0296
     33 C          60.0287   87.6137   11.2197 C.ar    1  UNL1        0.0020
     34 N          63.5716   83.2857   11.3099 N.3     1  UNL1       -0.2982
     35 H          64.5191   83.0178   11.0439 H       1  UNL1        0.1232
     36 C          63.0798   80.8326   10.6100 C.3     1  UNL1        0.0185
     37 C          62.7963   82.0143   11.4893 C.3     1  UNL1        0.0686
@<TRIPOS>BOND
     1    36    37    1
     2    37    34    1
     3    21    34    1
     4    21    22    1
     5    22    23    1
     6    23    24    1
     7    24    25    2
     8    25    27    1
     9    27    28   ar
    10    28    29   ar
    11    29    30   ar
    12    30    31    1
    13    30    32   ar
    14    32    33   ar
    15    25    26    1
    16    26    20    1
    17    20     1    1
    18     1     2    1
    19     2     3   ar
    20     3     4   ar
    21     4     5    1
    22     4     6   ar
    23     6    10    1
    24    10    11    2
    25    10    12    2
    26    10    13    1
    27    13    15    1
    28    15    16   ar
    29    16    17   ar
    30    17    18   ar
    31    18    19   ar
    32     6     7   ar
    33     7     8   ar
    34     8     9    1
    35    26    21    1
    36     8     2   ar
    37    33    27   ar
    38    19    15   ar
    39    34    35    1
    40    13    14    1
