@<TRIPOS>MOLECULE
*****
 48 54 0 0 0
SMALL
GASTEIGER

@<TRIPOS>ATOM
      1 C          60.6839   87.9678    8.9048 C.3     1  UNL1        0.1543
      2 N          60.7605   88.9012    7.7332 N.am    1  UNL1       -0.2822
      3 C          59.5020   89.3788    7.0712 C.2     1  UNL1        0.3043
      4 O          58.1670   88.9229    7.5808 O.2     1  UNL1       -0.2526
      5 N          59.5786   90.3122    5.8995 N.am    1  UNL1       -0.2642
      6 C          58.3201   90.7897    5.2375 C.3     1  UNL1        0.0950
      7 C          58.3968   91.7232    4.0658 C.3     1  UNL1        0.0224
      8 C          59.7318   92.1791    3.5561 C.3     1  UNL1        0.0162
      9 C          60.9903   91.7015    4.2181 C.3     1  UNL1        0.0224
     10 C          60.9137   90.7681    5.3898 C.3     1  UNL1        0.0950
     11 H          61.6367   89.2005    7.3986 H       1  UNL1        0.1514
     12 C          59.8084   93.1125    2.3845 C.3     1  UNL1        0.1006
     13 C          59.8383   92.5635    0.9889 C.2     1  UNL1       -0.0160
     14 C          59.9149   93.4970   -0.1828 C.ar    1  UNL1        0.0115
     15 C          59.9448   92.9480   -1.5784 C.ar    1  UNL1        0.0010
     16 C          60.0214   93.8814   -2.7501 C.ar    1  UNL1        0.0001
     17 C          60.0680   95.3639   -2.5262 C.ar    1  UNL1        0.0013
     18 C          60.0381   95.9129   -1.1306 C.ar    1  UNL1        0.0166
     19 C          59.9615   94.9794    0.0411 C.ar    1  UNL1        0.0730
     20 N          59.9316   95.5284    1.4367 N.am    1  UNL1       -0.1790
     21 C          59.8550   94.5950    2.6084 C.2     1  UNL1        0.2492
     22 O          59.8251   95.1440    4.0040 O.2     1  UNL1       -0.2726
     23 C          60.4218   88.5090   10.2790 C.2     1  UNL1        0.2440
     24 O          59.0882   88.2895   10.9297 O.2     1  UNL1       -0.2731
     25 N          61.4932   89.2697   11.0025 N.am    1  UNL1       -0.2753
     26 C          61.2311   89.8109   12.3767 C.3     1  UNL1        0.1108
     27 C          62.3025   90.5715   13.1001 C.3     1  UNL1        0.0939
     28 N          63.6361   90.7910   12.4494 N.3     1  UNL1       -0.2710
     29 C          63.8982   90.2498   11.0752 C.3     1  UNL1        0.0939
     30 C          62.8267   89.4891   10.3517 C.3     1  UNL1        0.1108
     31 C          64.7075   91.5517   13.1728 C.3     1  UNL1        0.0604
     32 C          65.0420   91.2078   14.5941 C.3     1  UNL1        0.0333
     33 C          66.1134   91.9685   15.3175 C.3     1  UNL1        0.0735
     34 N          66.8504   93.0731   14.6197 N.3     1  UNL1       -0.2714
     35 C          67.9218   93.8337   15.3432 C.3     1  UNL1        0.0896
     36 C          66.5159   93.4169   13.1985 C.3     1  UNL1        0.0735
     37 C          65.4445   92.6562   12.4750 C.3     1  UNL1        0.0333
     38 C          60.8694   86.4931    8.7023 C.3     1  UNL1        0.0553
     39 C          64.5232   82.9105    9.6050 C.3     1  UNL1        0.0287
     40 C          63.5307   83.9115   10.1177 C.2     1  UNL1       -0.0163
     41 C          62.6963   84.7018    9.1536 C.2     1  UNL1       -0.0105
     42 C          61.7038   85.7028    9.6663 C.2     1  UNL1       -0.0208
     43 C          61.5455   85.9135   11.1430 C.2     1  UNL1       -0.0046
     44 C          62.3799   85.1232   12.1070 C.2     1  UNL1        0.0261
     45 C          62.4444   85.1143   13.6056 C.2     1  UNL1        0.1197
     46 N          63.4768   84.1078   14.0191 N.2     1  UNL1       -0.1508
     47 N          64.0504   83.4947   12.7761 N.2     1  UNL1       -0.1677
     48 C          63.3724   84.1222   11.5943 C.3     1  UNL1        0.1672
@<TRIPOS>BOND
     1    39    40    1
     2    40    41    2
     3    41    42    1
     4    42    38    1
     5     1    38    1
     6     1     2    1
     7     2     3   am
     8     3     4    2
     9     3     5   am
    10     5     6    1
    11     6     7    1
    12     7     8    1
    13     8    12    1
    14    12    13    1
    15    13    14    2
    16    14    15   ar
    17    15    16   ar
    18    16    17   ar
    19    17    18   ar
    20    18    19   ar
    21    19    20    2
    22    20    21    1
    23    21    22    2
    24     8     9    1
    25     9    10    1
    26     1    23    1
    27    23    24    2
    28    23    25   am
    29    25    26    1
    30    26    27    1
    31    27    28    1
    32    28    31    1
    33    31    32    1
    34    32    33    1
    35    33    34    1
    36    34    35    1
    37    34    36    1
    38    36    37    1
    39    28    29    1
    40    29    30    1
    41    42    43    2
    42    43    44    1
    43    44    45    2
    44    45    46    1
    45    46    47    2
    46    47    48    1
    47    48    40    1
    48    10     5    1
    49    30    25    1
    50    48    44    1
    51    21    12    1
    52    37    31    1
    53    19    14   ar
    54     2    11    1
@<TRIPOS>MOLECULE
*****
 48 54 0 0 0
SMALL
GASTEIGER

@<TRIPOS>ATOM
      1 C          60.0564   89.4078    7.4829 C.3     1  UNL1        0.1543
      2 N          60.7002   90.0764    6.3046 N.am    1  UNL1       -0.2822
      3 C          59.8912   90.9765    5.4184 C.2     1  UNL1        0.3043
      4 O          58.4383   91.2080    5.7106 O.2     1  UNL1       -0.2526
      5 N          60.5350   91.6451    4.2402 N.am    1  UNL1       -0.2642
      6 C          59.7260   92.5452    3.3540 C.3     1  UNL1        0.0950
      7 C          60.3699   93.2138    2.1757 C.3     1  UNL1        0.0224
      8 C          61.8229   92.9822    1.8836 C.3     1  UNL1        0.0162
      9 C          62.6319   92.0822    2.7697 C.3     1  UNL1        0.0224
     10 C          61.9880   91.4136    3.9480 C.3     1  UNL1        0.0950
     11 H          61.6538   89.9245    6.1129 H       1  UNL1        0.1514
     12 C          62.4667   93.6508    0.7053 C.3     1  UNL1        0.1006
     13 C          63.6234   94.5833    0.9117 C.2     1  UNL1       -0.0160
     14 C          64.2673   95.2519   -0.2667 C.ar    1  UNL1        0.0115
     15 C          65.4240   96.1843   -0.0603 C.ar    1  UNL1        0.0010
     16 C          66.0679   96.8529   -1.2386 C.ar    1  UNL1        0.0001
     17 C          65.5550   96.5890   -2.6234 C.ar    1  UNL1        0.0013
     18 C          64.3983   95.6566   -2.8298 C.ar    1  UNL1        0.0166
     19 C          63.7545   94.9880   -1.6514 C.ar    1  UNL1        0.0730
     20 N          62.5978   94.0556   -1.8578 N.am    1  UNL1       -0.1790
     21 C          61.9539   93.3870   -0.6795 C.2     1  UNL1        0.2492
     22 O          60.7972   92.4545   -0.8859 O.2     1  UNL1       -0.2726
     23 C          59.9453   87.9126    7.5286 C.2     1  UNL1        0.2440
     24 O          59.0997   87.1923    6.5204 O.2     1  UNL1       -0.2731
     25 N          60.6796   87.1378    8.5822 N.am    1  UNL1       -0.2753
     26 C          60.5685   85.6427    8.6279 C.3     1  UNL1        0.1108
     27 C          61.3029   84.8678    9.6816 C.3     1  UNL1        0.0939
     28 N          62.1484   85.5882   10.6897 N.3     1  UNL1       -0.2710
     29 C          62.2595   87.0834   10.6440 C.3     1  UNL1        0.0939
     30 C          61.5251   87.8582    9.5903 C.3     1  UNL1        0.1108
     31 C          62.8828   84.8134   11.7434 C.3     1  UNL1        0.0604
     32 C          63.3083   85.4906   13.0124 C.3     1  UNL1        0.0333
     33 C          64.0427   84.7158   14.0661 C.3     1  UNL1        0.0735
     34 N          64.3516   83.2637   13.8508 N.3     1  UNL1       -0.2714
     35 C          65.0860   82.4889   14.9045 C.3     1  UNL1        0.0896
     36 C          63.9261   82.5866   12.5818 C.3     1  UNL1        0.0735
     37 C          63.1917   83.3615   11.5281 C.3     1  UNL1        0.0333
     38 C          59.5236   90.2344    8.6156 C.3     1  UNL1        0.0553
     39 C          59.3199   89.0726   13.6761 C.3     1  UNL1        0.0287
     40 C          60.0799   89.5935   12.4924 C.2     1  UNL1       -0.0163
     41 C          59.4217   89.6535   11.1458 C.2     1  UNL1       -0.0105
     42 C          60.1816   90.1744    9.9621 C.2     1  UNL1       -0.0208
     43 C          61.5998   90.6354   10.1251 C.2     1  UNL1       -0.0046
     44 C          62.2579   90.5754   11.4717 C.2     1  UNL1        0.0261
     45 C          63.6327   90.9566   11.9348 C.2     1  UNL1        0.1197
     46 N          63.7225   90.6712   13.4046 N.2     1  UNL1       -0.1508
     47 N          62.4031   90.1137   13.8499 N.2     1  UNL1       -0.1677
     48 C          61.4979   90.0545   12.6553 C.3     1  UNL1        0.1672
@<TRIPOS>BOND
     1    39    40    1
     2    40    41    2
     3    41    42    1
     4    42    38    1
     5     1    38    1
     6     1     2    1
     7     2     3   am
     8     3     4    2
     9     3     5   am
    10     5     6    1
    11     6     7    1
    12     7     8    1
    13     8    12    1
    14    12    13    1
    15    13    14    2
    16    14    15   ar
    17    15    16   ar
    18    16    17   ar
    19    17    18   ar
    20    18    19   ar
    21    19    20    2
    22    20    21    1
    23    21    22    2
    24     8     9    1
    25     9    10    1
    26     1    23    1
    27    23    24    2
    28    23    25   am
    29    25    26    1
    30    26    27    1
    31    27    28    1
    32    28    31    1
    33    31    32    1
    34    32    33    1
    35    33    34    1
    36    34    35    1
    37    34    36    1
    38    36    37    1
    39    28    29    1
    40    29    30    1
    41    42    43    2
    42    43    44    1
    43    44    45    2
    44    45    46    1
    45    46    47    2
    46    47    48    1
    47    48    40    1
    48    10     5    1
    49    30    25    1
    50    48    44    1
    51    21    12    1
    52    37    31    1
    53    19    14   ar
    54     2    11    1
@<TRIPOS>MOLECULE
*****
 48 54 0 0 0
SMALL
GASTEIGER

@<TRIPOS>ATOM
      1 C          60.3645   89.4136    8.1189 C.3     1  UNL1        0.1543
      2 N          60.7342   90.1572    6.8698 N.am    1  UNL1       -0.2822
      3 C          59.6602   90.6977    5.9729 C.2     1  UNL1        0.3043
      4 O          58.2164   90.4945    6.3251 O.2     1  UNL1       -0.2526
      5 N          60.0300   91.4413    4.7238 N.am    1  UNL1       -0.2642
      6 C          58.9559   91.9817    3.8269 C.3     1  UNL1        0.0950
      7 C          59.3258   92.7254    2.5778 C.3     1  UNL1        0.0224
      8 C          60.7696   92.9285    2.2255 C.3     1  UNL1        0.0162
      9 C          61.8436   92.3881    3.1224 C.3     1  UNL1        0.0224
     10 C          61.4738   91.6445    4.3715 C.3     1  UNL1        0.0950
     11 H          61.6819   90.2906    6.6386 H       1  UNL1        0.1514
     12 C          61.1393   93.6721    0.9765 C.3     1  UNL1        0.1006
     13 C          61.7369   92.9357   -0.1857 C.2     1  UNL1       -0.0160
     14 C          62.1067   93.6794   -1.4349 C.ar    1  UNL1        0.0115
     15 C          62.7042   92.9430   -2.5970 C.ar    1  UNL1        0.0010
     16 C          63.0740   93.6865   -3.8461 C.ar    1  UNL1        0.0001
     17 C          62.8462   95.1667   -3.9331 C.ar    1  UNL1        0.0013
     18 C          62.2486   95.9031   -2.7709 C.ar    1  UNL1        0.0166
     19 C          61.8789   95.1594   -1.5218 C.ar    1  UNL1        0.0730
     20 N          61.2813   95.8958   -0.3596 N.am    1  UNL1       -0.1790
     21 C          60.9115   95.1522    0.8895 C.2     1  UNL1        0.2492
     22 O          60.3140   95.8886    2.0516 O.2     1  UNL1       -0.2726
     23 C          60.2173   87.9212    8.0875 C.2     1  UNL1        0.2440
     24 O          59.3957   87.2710    7.0139 O.2     1  UNL1       -0.2731
     25 N          60.8915   87.0790    9.1296 N.am    1  UNL1       -0.2753
     26 C          60.7443   85.5866    9.0982 C.3     1  UNL1        0.1108
     27 C          61.4186   84.7443   10.1403 C.3     1  UNL1        0.0939
     28 N          62.2401   85.3945   11.2138 N.3     1  UNL1       -0.2710
     29 C          62.3873   86.8870   11.2452 C.3     1  UNL1        0.0939
     30 C          61.7130   87.7292   10.2030 C.3     1  UNL1        0.1108
     31 C          62.9144   84.5523   12.2559 C.3     1  UNL1        0.0604
     32 C          62.9587   83.0610   12.1014 C.3     1  UNL1        0.0333
     33 C          63.6330   82.2187   13.1435 C.3     1  UNL1        0.0735
     34 N          64.2630   82.8679   14.3401 N.3     1  UNL1       -0.2714
     35 C          64.9372   82.0257   15.3822 C.3     1  UNL1        0.0896
     36 C          64.2186   84.3592   14.4946 C.3     1  UNL1        0.0735
     37 C          63.5443   85.2015   13.4524 C.3     1  UNL1        0.0333
     38 C          60.1419   90.1625    9.3994 C.3     1  UNL1        0.0553
     39 C          64.8720   92.1440   10.2358 C.3     1  UNL1        0.0287
     40 C          63.6591   91.4201   10.7404 C.2     1  UNL1       -0.0163
     41 C          62.5070   91.1532    9.8176 C.2     1  UNL1       -0.0105
     42 C          61.2940   90.4293   10.3222 C.2     1  UNL1       -0.0208
     43 C          61.2331   89.9722   11.7496 C.2     1  UNL1       -0.0046
     44 C          62.3851   90.2391   12.6723 C.2     1  UNL1        0.0261
     45 C          62.6095   89.9109   14.1187 C.2     1  UNL1        0.1197
     46 N          63.9611   90.4320   14.5081 N.2     1  UNL1       -0.1508
     47 N          64.5721   91.0822   13.3023 N.2     1  UNL1       -0.1677
     48 C          63.5981   90.9630   12.1677 C.3     1  UNL1        0.1672
@<TRIPOS>BOND
     1    39    40    1
     2    40    41    2
     3    41    42    1
     4    42    38    1
     5     1    38    1
     6     1     2    1
     7     2     3   am
     8     3     4    2
     9     3     5   am
    10     5     6    1
    11     6     7    1
    12     7     8    1
    13     8    12    1
    14    12    13    1
    15    13    14    2
    16    14    15   ar
    17    15    16   ar
    18    16    17   ar
    19    17    18   ar
    20    18    19   ar
    21    19    20    2
    22    20    21    1
    23    21    22    2
    24     8     9    1
    25     9    10    1
    26     1    23    1
    27    23    24    2
    28    23    25   am
    29    25    26    1
    30    26    27    1
    31    27    28    1
    32    28    31    1
    33    31    32    1
    34    32    33    1
    35    33    34    1
    36    34    35    1
    37    34    36    1
    38    36    37    1
    39    28    29    1
    40    29    30    1
    41    42    43    2
    42    43    44    1
    43    44    45    2
    44    45    46    1
    45    46    47    2
    46    47    48    1
    47    48    40    1
    48    10     5    1
    49    30    25    1
    50    48    44    1
    51    21    12    1
    52    37    31    1
    53    19    14   ar
    54     2    11    1
