@<TRIPOS>MOLECULE
*****
 30 30 0 0 0
SMALL
GASTEIGER

@<TRIPOS>ATOM
      1 C          60.8330   86.6299    8.0508 C.2     1  UNL1       -0.0307
      2 C          62.0182   85.8630    8.5578 C.2     1  UNL1       -0.0307
      3 C          59.9949   87.4309    9.0026 C.3     1  UNL1        0.0258
      4 C          60.0940   88.9276    9.0123 C.3     1  UNL1        0.0064
      5 C          61.1267   89.6053    9.8633 C.3     1  UNL1        0.0216
      6 C          61.2221   89.2841   11.3254 C.3     1  UNL1        0.0898
      7 C          63.0582   89.8095   13.0868 C.2     1  UNL1        0.2995
      8 O          63.5709   88.4046   12.9715 O.2     1  UNL1       -0.2652
      9 N          61.8838   90.2492   12.2638 N.am    1  UNL1       -0.2971
     10 H          61.5473   91.1713   12.3395 H       1  UNL1        0.1499
     11 C          64.1722   91.6103   16.4433 C.3     1  UNL1        0.1111
     12 N          63.5106   90.6452   15.5049 N.am    1  UNL1       -0.2954
     13 C          63.7199   90.7747   14.0252 C.2     1  UNL1        0.2996
     14 O          64.5908   91.8694   13.4840 O.2     1  UNL1       -0.2652
     15 H          62.9389   89.9267   15.8601 H       1  UNL1        0.1499
     16 C          62.3655   85.8972   10.0166 C.3     1  UNL1        0.0257
     17 C          62.7498   84.6326   10.7259 C.3     1  UNL1        0.0047
     18 C          63.7133   83.6771   10.0864 C.3     1  UNL1        0.0003
     19 C          64.0770   82.3998   10.7837 C.3     1  UNL1        0.0000
     20 C          63.0160   81.5914   11.4697 C.3     1  UNL1        0.0000
     21 C          63.1813   81.2045   12.9095 C.3     1  UNL1        0.0000
     22 C          62.4078   81.9256   13.9734 C.3     1  UNL1        0.0005
     23 C          62.5420   83.4122   14.1209 C.3     1  UNL1        0.0080
     24 C          63.4680   83.9828   15.1539 C.3     1  UNL1        0.0671
     25 C          63.1295   85.2778   15.8310 C.ar    1  UNL1        0.1574
     26 N          62.1228   85.4625   16.9276 N.ar    1  UNL1       -0.1130
     27 N          62.1094   86.9142   17.3049 N.ar    1  UNL1       -0.0232
     28 N          63.1078   87.6267   16.4414 N.ar    1  UNL1       -0.0466
     29 N          63.7383   86.6153   15.5306 N.ar    1  UNL1       -0.2422
     30 H          64.4301   86.7974   14.8543 H       1  UNL1        0.1920
@<TRIPOS>BOND
     1    11    12    1
     2    12    13   am
     3    13    14    2
     4    13     7    1
     5     7     8    2
     6     7     9   am
     7     9     6    1
     8     6     5    1
     9     5     4    1
    10     4     3    1
    11     3     1    1
    12     1     2    2
    13     2    16    1
    14    16    17    1
    15    17    18    1
    16    18    19    1
    17    19    20    1
    18    20    21    1
    19    21    22    1
    20    22    23    1
    21    23    24    1
    22    24    25    1
    23    25    26   ar
    24    26    27   ar
    25    27    28   ar
    26    28    29   ar
    27    29    25   ar
    28    12    15    1
    29     9    10    1
    30    29    30    1
@<TRIPOS>MOLECULE
*****
 30 30 0 0 0
SMALL
GASTEIGER

@<TRIPOS>ATOM
      1 C          63.9218   85.4974   15.8675 C.2     1  UNL1       -0.0307
      2 C          63.7012   84.7889   14.5638 C.2     1  UNL1       -0.0307
      3 C          62.8583   85.4707   16.9249 C.3     1  UNL1        0.0258
      4 C          62.3381   86.7556   17.4980 C.3     1  UNL1        0.0064
      5 C          63.1640   88.0047   17.4101 C.3     1  UNL1        0.0216
      6 C          62.7697   89.0994   16.4633 C.3     1  UNL1        0.0898
      7 C          64.1935   91.0158   15.4387 C.2     1  UNL1        0.2995
      8 O          63.6699   91.9611   16.4789 O.2     1  UNL1       -0.2652
      9 N          63.7434   89.5849   15.4309 N.am    1  UNL1       -0.2971
     10 H          64.0871   88.9645   14.7481 H       1  UNL1        0.1499
     11 C          67.6159   91.8939   13.6313 C.3     1  UNL1        0.1111
     12 N          66.6421   91.4084   14.6638 N.am    1  UNL1       -0.2954
     13 C          65.1673   91.5013   14.4062 C.2     1  UNL1        0.2996
     14 O          64.6663   92.0797   13.1161 O.2     1  UNL1       -0.2652
     15 H          66.9709   91.0287   15.5105 H       1  UNL1        0.1499
     16 C          62.4171   84.0539   14.3176 C.3     1  UNL1        0.0257
     17 C          62.4084   82.5547   14.2692 C.3     1  UNL1        0.0047
     18 C          62.1994   81.8477   12.9628 C.3     1  UNL1        0.0003
     19 C          63.3784   81.4833   12.1101 C.3     1  UNL1        0.0000
     20 C          64.3243   82.5497   11.6430 C.3     1  UNL1        0.0000
     21 C          64.2858   83.0143   10.2173 C.3     1  UNL1        0.0000
     22 C          63.3453   84.1099    9.8107 C.3     1  UNL1        0.0005
     23 C          62.6518   84.9301   10.8578 C.3     1  UNL1        0.0080
     24 C          61.7202   86.0332   10.4513 C.3     1  UNL1        0.0671
     25 C          61.6916   87.3155   11.2289 C.ar    1  UNL1        0.1574
     26 N          62.8461   87.9243   11.9682 N.ar    1  UNL1       -0.1130
     27 N          62.3715   89.1993   12.6000 N.ar    1  UNL1       -0.0232
     28 N          60.9237   89.3785   12.2512 N.ar    1  UNL1       -0.0466
     29 N          60.5035   88.2143   11.4038 N.ar    1  UNL1       -0.2422
     30 H          59.6056   88.0661   11.0283 H       1  UNL1        0.1920
@<TRIPOS>BOND
     1    11    12    1
     2    12    13   am
     3    13    14    2
     4    13     7    1
     5     7     8    2
     6     7     9   am
     7     9     6    1
     8     6     5    1
     9     5     4    1
    10     4     3    1
    11     3     1    1
    12     1     2    2
    13     2    16    1
    14    16    17    1
    15    17    18    1
    16    18    19    1
    17    19    20    1
    18    20    21    1
    19    21    22    1
    20    22    23    1
    21    23    24    1
    22    24    25    1
    23    25    26   ar
    24    26    27   ar
    25    27    28   ar
    26    28    29   ar
    27    29    25   ar
    28    12    15    1
    29     9    10    1
    30    29    30    1
@<TRIPOS>MOLECULE
*****
 30 30 0 0 0
SMALL
GASTEIGER

@<TRIPOS>ATOM
      1 C          62.0213   87.6719    9.6702 C.2     1  UNL1       -0.0307
      2 C          62.0790   86.1731    9.6715 C.2     1  UNL1       -0.0307
      3 C          61.8704   88.4178   10.9628 C.3     1  UNL1        0.0258
      4 C          62.9355   89.3777   11.4036 C.3     1  UNL1        0.0064
      5 C          63.0299   90.7350   10.7719 C.3     1  UNL1        0.0216
      6 C          64.2378   91.5914   11.0117 C.3     1  UNL1        0.0898
      7 C          66.0145   92.5332   12.6568 C.2     1  UNL1        0.2995
      8 O          66.8943   92.8978   11.4979 O.2     1  UNL1       -0.2652
      9 N          64.6863   91.8800   12.4136 N.am    1  UNL1       -0.2971
     10 H          64.1089   91.6407   13.1743 H       1  UNL1        0.1499
     11 C          68.3518   93.4242   15.7379 C.3     1  UNL1        0.1111
     12 N          67.9034   93.1356   14.3359 N.am    1  UNL1       -0.2954
     13 C          66.4630   92.8217   14.0588 C.2     1  UNL1        0.2996
     14 O          65.4711   92.7964   15.1837 O.2     1  UNL1       -0.2652
     15 H          68.5544   93.1523   13.5976 H       1  UNL1        0.1499
     16 C          61.9859   85.4201   10.9654 C.3     1  UNL1        0.0257
     17 C          63.1407   84.5837   11.4313 C.3     1  UNL1        0.0047
     18 C          63.8055   83.6291   10.4842 C.3     1  UNL1        0.0003
     19 C          63.9188   82.1764   10.8401 C.3     1  UNL1        0.0000
     20 C          62.8256   81.5077   11.6197 C.3     1  UNL1        0.0000
     21 C          63.0915   81.0114   13.0100 C.3     1  UNL1        0.0000
     22 C          62.2010   81.4344   14.1405 C.3     1  UNL1        0.0005
     23 C          62.0973   82.8841   14.5115 C.3     1  UNL1        0.0080
     24 C          63.2712   83.5867   15.1266 C.3     1  UNL1        0.0671
     25 C          63.1079   84.9668   15.6909 C.ar    1  UNL1        0.1574
     26 N          62.1248   85.3769   16.7470 N.ar    1  UNL1       -0.1130
     27 N          62.3083   86.8428   17.0070 N.ar    1  UNL1       -0.0232
     28 N          63.4048   87.3387   16.1116 N.ar    1  UNL1       -0.0466
     29 N          63.8989   86.1793   15.2982 N.ar    1  UNL1       -0.2422
     30 H          64.6165   86.2089   14.6249 H       1  UNL1        0.1920
@<TRIPOS>BOND
     1    11    12    1
     2    12    13   am
     3    13    14    2
     4    13     7    1
     5     7     8    2
     6     7     9   am
     7     9     6    1
     8     6     5    1
     9     5     4    1
    10     4     3    1
    11     3     1    1
    12     1     2    2
    13     2    16    1
    14    16    17    1
    15    17    18    1
    16    18    19    1
    17    19    20    1
    18    20    21    1
    19    21    22    1
    20    22    23    1
    21    23    24    1
    22    24    25    1
    23    25    26   ar
    24    26    27   ar
    25    27    28   ar
    26    28    29   ar
    27    29    25   ar
    28    12    15    1
    29     9    10    1
    30    29    30    1
@<TRIPOS>MOLECULE
*****
 30 30 0 0 0
SMALL
GASTEIGER

@<TRIPOS>ATOM
      1 C          62.2985   88.2378   10.0891 C.2     1  UNL1       -0.0307
      2 C          62.0987   86.7850    9.7739 C.2     1  UNL1       -0.0307
      3 C          62.1086   88.7338   11.4919 C.3     1  UNL1        0.0258
      4 C          63.1837   89.5446   12.1528 C.3     1  UNL1        0.0064
      5 C          63.3071   91.0099   11.8565 C.3     1  UNL1        0.0216
      6 C          64.6224   91.7054   12.0471 C.3     1  UNL1        0.0898
      7 C          66.4140   93.3589   11.1492 C.2     1  UNL1        0.2995
      8 O          66.9366   93.5491   12.5423 O.2     1  UNL1       -0.2652
      9 N          65.2569   92.4370   10.9017 N.am    1  UNL1       -0.2971
     10 H          64.9139   92.3122    9.9873 H       1  UNL1        0.1499
     11 C          66.8664   95.7676    8.0278 C.3     1  UNL1        0.1111
     12 N          66.2321   95.0359    9.1733 N.am    1  UNL1       -0.2954
     13 C          67.0485   94.0905   10.0037 C.2     1  UNL1        0.2996
     14 O          68.4993   93.8767    9.6886 O.2     1  UNL1       -0.2652
     15 H          65.2798   95.1763    9.3801 H       1  UNL1        0.1499
     16 C          61.7089   85.8282   10.8613 C.3     1  UNL1        0.0257
     17 C          62.7153   84.8555   11.4008 C.3     1  UNL1        0.0047
     18 C          63.3714   83.8681   10.4817 C.3     1  UNL1        0.0003
     19 C          63.9352   82.5915   11.0316 C.3     1  UNL1        0.0000
     20 C          63.0245   81.5788   11.6601 C.3     1  UNL1        0.0000
     21 C          63.2380   81.1599   13.0846 C.3     1  UNL1        0.0000
     22 C          62.2791   81.6048   14.1489 C.3     1  UNL1        0.0005
     23 C          62.2694   83.0357   14.5990 C.3     1  UNL1        0.0080
     24 C          63.5625   83.7434   14.8764 C.3     1  UNL1        0.0671
     25 C          63.5578   85.1981   15.2421 C.ar    1  UNL1        0.1574
     26 N          63.0241   85.7856   16.5149 N.ar    1  UNL1       -0.1130
     27 N          63.2224   87.2713   16.4587 N.ar    1  UNL1       -0.0232
     28 N          63.8788   87.6022   15.1511 N.ar    1  UNL1       -0.0466
     29 N          64.0860   86.3209   14.3993 N.ar    1  UNL1       -0.2422
     30 H          64.4966   86.2323   13.5089 H       1  UNL1        0.1920
@<TRIPOS>BOND
     1    11    12    1
     2    12    13   am
     3    13    14    2
     4    13     7    1
     5     7     8    2
     6     7     9   am
     7     9     6    1
     8     6     5    1
     9     5     4    1
    10     4     3    1
    11     3     1    1
    12     1     2    2
    13     2    16    1
    14    16    17    1
    15    17    18    1
    16    18    19    1
    17    19    20    1
    18    20    21    1
    19    21    22    1
    20    22    23    1
    21    23    24    1
    22    24    25    1
    23    25    26   ar
    24    26    27   ar
    25    27    28   ar
    26    28    29   ar
    27    29    25   ar
    28    12    15    1
    29     9    10    1
    30    29    30    1
@<TRIPOS>MOLECULE
*****
 30 30 0 0 0
SMALL
GASTEIGER

@<TRIPOS>ATOM
      1 C          65.0975   85.6651   14.7663 C.2     1  UNL1       -0.0307
      2 C          64.5817   84.2910   14.4567 C.2     1  UNL1       -0.0307
      3 C          64.1359   86.7816   15.0468 C.3     1  UNL1        0.0258
      4 C          64.2998   88.1037   14.3573 C.3     1  UNL1        0.0064
      5 C          64.2177   89.3765   15.1468 C.3     1  UNL1        0.0216
      6 C          63.5532   90.5843   14.5554 C.3     1  UNL1        0.0898
      7 C          65.0383   92.0656   13.0225 C.2     1  UNL1        0.2995
      8 O          65.7507   92.6003   14.2294 O.2     1  UNL1       -0.2652
      9 N          63.9395   91.0576   13.1855 N.am    1  UNL1       -0.2971
     10 H          63.4720   90.7067   12.3934 H       1  UNL1        0.1499
     11 C          67.0323   93.8640   10.1002 C.3     1  UNL1        0.1111
     12 N          66.6459   93.3907   11.4701 N.am    1  UNL1       -0.2954
     13 C          65.4247   92.5390   11.6526 C.2     1  UNL1        0.2996
     14 O          64.5899   92.1606   10.4652 O.2     1  UNL1       -0.2652
     15 H          67.1938   93.6390   12.2494 H       1  UNL1        0.1499
     16 C          63.1043   84.0334   14.4277 C.3     1  UNL1        0.0257
     17 C          62.5771   82.6578   14.7101 C.3     1  UNL1        0.0047
     18 C          62.1099   81.7873   13.5814 C.3     1  UNL1        0.0003
     19 C          63.0998   81.2434   12.5944 C.3     1  UNL1        0.0000
     20 C          63.1697   81.8153   11.2095 C.3     1  UNL1        0.0000
     21 C          64.0022   83.0342   10.9425 C.3     1  UNL1        0.0000
     22 C          63.3906   84.2278   10.2707 C.3     1  UNL1        0.0005
     23 C          62.5512   85.1860   11.0628 C.3     1  UNL1        0.0080
     24 C          61.7198   86.2155   10.3565 C.3     1  UNL1        0.0671
     25 C          61.2881   87.4563   11.0805 C.ar    1  UNL1        0.1574
     26 N          62.1887   88.5560   11.5595 N.ar    1  UNL1       -0.1130
     27 N          61.3373   89.5946   12.2277 N.ar    1  UNL1       -0.0232
     28 N          59.9104   89.1367   12.1616 N.ar    1  UNL1       -0.0466
     29 N          59.8800   87.8152   11.4527 N.ar    1  UNL1       -0.2422
     30 H          59.0769   87.2777   11.2646 H       1  UNL1        0.1920
@<TRIPOS>BOND
     1    11    12    1
     2    12    13   am
     3    13    14    2
     4    13     7    1
     5     7     8    2
     6     7     9   am
     7     9     6    1
     8     6     5    1
     9     5     4    1
    10     4     3    1
    11     3     1    1
    12     1     2    2
    13     2    16    1
    14    16    17    1
    15    17    18    1
    16    18    19    1
    17    19    20    1
    18    20    21    1
    19    21    22    1
    20    22    23    1
    21    23    24    1
    22    24    25    1
    23    25    26   ar
    24    26    27   ar
    25    27    28   ar
    26    28    29   ar
    27    29    25   ar
    28    12    15    1
    29     9    10    1
    30    29    30    1
@<TRIPOS>MOLECULE
*****
 30 30 0 0 0
SMALL
GASTEIGER

@<TRIPOS>ATOM
      1 C          65.0295   85.5522   14.6970 C.2     1  UNL1       -0.0307
      2 C          64.4479   84.2118   14.3577 C.2     1  UNL1       -0.0307
      3 C          64.1257   86.6874   15.0769 C.3     1  UNL1        0.0258
      4 C          64.5494   88.1027   14.8172 C.3     1  UNL1        0.0064
      5 C          63.6106   89.2337   15.1168 C.3     1  UNL1        0.0216
      6 C          63.7114   90.5163   14.3457 C.3     1  UNL1        0.0898
      7 C          65.6263   92.0819   15.1405 C.2     1  UNL1        0.2995
      8 O          64.8613   92.3805   16.3956 O.2     1  UNL1       -0.2652
      9 N          65.0514   91.1498   14.1155 N.am    1  UNL1       -0.2971
     10 H          65.5535   90.9538   13.2917 H       1  UNL1        0.1499
     11 C          69.0572   93.9541   15.8290 C.3     1  UNL1        0.1111
     12 N          67.7172   93.3206   16.0592 N.am    1  UNL1       -0.2954
     13 C          66.9664   92.7154   14.9102 C.2     1  UNL1        0.2996
     14 O          67.5556   92.7437   13.5311 O.2     1  UNL1       -0.2652
     15 H          67.3305   93.3020   16.9643 H       1  UNL1        0.1499
     16 C          62.9626   84.0066   14.3983 C.3     1  UNL1        0.0257
     17 C          62.4008   82.6593   14.7435 C.3     1  UNL1        0.0047
     18 C          61.9323   81.7406   13.6542 C.3     1  UNL1        0.0003
     19 C          62.9315   81.0524   12.7721 C.3     1  UNL1        0.0000
     20 C          63.1017   81.4905   11.3477 C.3     1  UNL1        0.0000
     21 C          64.0890   82.5670   11.0069 C.3     1  UNL1        0.0000
     22 C          63.6386   83.7901   10.2644 C.3     1  UNL1        0.0005
     23 C          62.7964   84.8202   10.9569 C.3     1  UNL1        0.0080
     24 C          62.1442   85.9129   10.1628 C.3     1  UNL1        0.0671
     25 C          61.5495   87.0976   10.8648 C.ar    1  UNL1        0.1574
     26 N          62.3055   88.1287   11.6492 N.ar    1  UNL1       -0.1130
     27 N          61.3176   89.1276   12.1748 N.ar    1  UNL1       -0.0232
     28 N          59.9510   88.7139   11.7152 N.ar    1  UNL1       -0.0466
     29 N          60.0943   87.4593   10.9056 N.ar    1  UNL1       -0.2422
     30 H          59.3619   86.9608   10.4763 H       1  UNL1        0.1920
@<TRIPOS>BOND
     1    11    12    1
     2    12    13   am
     3    13    14    2
     4    13     7    1
     5     7     8    2
     6     7     9   am
     7     9     6    1
     8     6     5    1
     9     5     4    1
    10     4     3    1
    11     3     1    1
    12     1     2    2
    13     2    16    1
    14    16    17    1
    15    17    18    1
    16    18    19    1
    17    19    20    1
    18    20    21    1
    19    21    22    1
    20    22    23    1
    21    23    24    1
    22    24    25    1
    23    25    26   ar
    24    26    27   ar
    25    27    28   ar
    26    28    29   ar
    27    29    25   ar
    28    12    15    1
    29     9    10    1
    30    29    30    1
@<TRIPOS>MOLECULE
*****
 30 30 0 0 0
SMALL
GASTEIGER

@<TRIPOS>ATOM
      1 C          62.4514   86.2334    8.8046 C.2     1  UNL1       -0.0307
      2 C          63.0872   84.9280    9.1811 C.2     1  UNL1       -0.0307
      3 C          61.7536   87.0560    9.8469 C.3     1  UNL1        0.0258
      4 C          62.2028   88.4612   10.1180 C.3     1  UNL1        0.0064
      5 C          62.6653   88.8490   11.4913 C.3     1  UNL1        0.0216
      6 C          62.7540   90.2972   11.8717 C.3     1  UNL1        0.0898
      7 C          64.7144   91.9712   12.1953 C.2     1  UNL1        0.2995
      8 O          64.5141   91.9186   13.6809 O.2     1  UNL1       -0.2652
      9 N          63.8343   91.1605   11.2907 N.am    1  UNL1       -0.2971
     10 H          63.9658   91.1950   10.3157 H       1  UNL1        0.1499
     11 C          66.6755   94.3521    9.6982 C.3     1  UNL1        0.1111
     12 N          65.5952   93.4888   10.2793 N.am    1  UNL1       -0.2954
     13 C          65.7947   92.8345   11.6143 C.2     1  UNL1        0.2996
     14 O          67.0746   93.0434   12.3681 O.2     1  UNL1       -0.2652
     15 H          64.7552   93.3516    9.7845 H       1  UNL1        0.1499
     16 C          63.0252   84.4453   10.5999 C.3     1  UNL1        0.0257
     17 C          63.9666   83.3764   11.0703 C.3     1  UNL1        0.0047
     18 C          63.6968   81.9392   10.7362 C.3     1  UNL1        0.0003
     19 C          63.0407   81.0448   11.7460 C.3     1  UNL1        0.0000
     20 C          62.0473   81.6115   12.7165 C.3     1  UNL1        0.0000
     21 C          62.4196   81.7773   14.1601 C.3     1  UNL1        0.0000
     22 C          63.5383   82.6997   14.5449 C.3     1  UNL1        0.0005
     23 C          63.2321   84.0608   15.0958 C.3     1  UNL1        0.0080
     24 C          64.2664   85.1454   15.0331 C.3     1  UNL1        0.0671
     25 C          63.9021   86.5517   15.4066 C.ar    1  UNL1        0.1574
     26 N          64.1886   87.7814   14.5968 N.ar    1  UNL1       -0.1130
     27 N          63.6509   88.9650   15.3451 N.ar    1  UNL1       -0.0232
     28 N          63.0321   88.4668   16.6175 N.ar    1  UNL1       -0.0466
     29 N          63.1874   86.9753   16.6555 N.ar    1  UNL1       -0.2422
     30 H          62.8750   86.3791   17.3739 H       1  UNL1        0.1920
@<TRIPOS>BOND
     1    11    12    1
     2    12    13   am
     3    13    14    2
     4    13     7    1
     5     7     8    2
     6     7     9   am
     7     9     6    1
     8     6     5    1
     9     5     4    1
    10     4     3    1
    11     3     1    1
    12     1     2    2
    13     2    16    1
    14    16    17    1
    15    17    18    1
    16    18    19    1
    17    19    20    1
    18    20    21    1
    19    21    22    1
    20    22    23    1
    21    23    24    1
    22    24    25    1
    23    25    26   ar
    24    26    27   ar
    25    27    28   ar
    26    28    29   ar
    27    29    25   ar
    28    12    15    1
    29     9    10    1
    30    29    30    1
@<TRIPOS>MOLECULE
*****
 30 30 0 0 0
SMALL
GASTEIGER

@<TRIPOS>ATOM
      1 C          61.1564   87.1525   10.8491 C.2     1  UNL1       -0.0307
      2 C          61.0389   86.2911    9.6267 C.2     1  UNL1       -0.0307
      3 C          62.4714   87.7842   11.1978 C.3     1  UNL1        0.0258
      4 C          62.5779   89.2753   11.3214 C.3     1  UNL1        0.0064
      5 C          63.4030   89.8800   12.4185 C.3     1  UNL1        0.0216
      6 C          63.7442   91.3402   12.3825 C.3     1  UNL1        0.0898
      7 C          65.6503   91.9483   14.0399 C.2     1  UNL1        0.2995
      8 O          64.7373   91.6618   15.1950 O.2     1  UNL1       -0.2652
      9 N          65.1537   91.7875   12.6337 N.am    1  UNL1       -0.2971
     10 H          65.7530   91.9755   11.8755 H       1  UNL1        0.1499
     11 C          68.8069   93.5889   15.7990 C.3     1  UNL1        0.1111
     12 N          67.3973   93.1416   15.5479 N.am    1  UNL1       -0.2954
     13 C          67.0599   92.3956   14.2911 C.2     1  UNL1        0.2996
     14 O          68.1320   92.0968   13.2854 O.2     1  UNL1       -0.2652
     15 H          66.6937   93.3377   16.2079 H       1  UNL1        0.1499
     16 C          62.2364   86.0614    8.7531 C.3     1  UNL1        0.0257
     17 C          63.2058   84.9651    9.0823 C.3     1  UNL1        0.0047
     18 C          63.1591   84.3014   10.4268 C.3     1  UNL1        0.0003
     19 C          64.1153   83.1915   10.7489 C.3     1  UNL1        0.0000
     20 C          63.7751   81.7779   10.3803 C.3     1  UNL1        0.0000
     21 C          62.9754   80.9287   11.3234 C.3     1  UNL1        0.0000
     22 C          63.1218   81.1113   12.8050 C.3     1  UNL1        0.0005
     23 C          62.1176   81.9283   13.5628 C.3     1  UNL1        0.0080
     24 C          62.5353   82.6771   14.7936 C.3     1  UNL1        0.0671
     25 C          63.2669   83.9804   14.6664 C.ar    1  UNL1        0.1574
     26 N          62.7912   85.1890   13.9160 N.ar    1  UNL1       -0.1130
     27 N          63.8329   86.2595   14.0531 N.ar    1  UNL1       -0.0232
     28 N          64.9524   85.7126   14.8883 N.ar    1  UNL1       -0.0466
     29 N          64.6026   84.3041   15.2673 N.ar    1  UNL1       -0.2422
     30 H          65.1530   83.6984   15.8144 H       1  UNL1        0.1920
@<TRIPOS>BOND
     1    11    12    1
     2    12    13   am
     3    13    14    2
     4    13     7    1
     5     7     8    2
     6     7     9   am
     7     9     6    1
     8     6     5    1
     9     5     4    1
    10     4     3    1
    11     3     1    1
    12     1     2    2
    13     2    16    1
    14    16    17    1
    15    17    18    1
    16    18    19    1
    17    19    20    1
    18    20    21    1
    19    21    22    1
    20    22    23    1
    21    23    24    1
    22    24    25    1
    23    25    26   ar
    24    26    27   ar
    25    27    28   ar
    26    28    29   ar
    27    29    25   ar
    28    12    15    1
    29     9    10    1
    30    29    30    1
@<TRIPOS>MOLECULE
*****
 30 30 0 0 0
SMALL
GASTEIGER

@<TRIPOS>ATOM
      1 C          60.3738   88.5146   10.4865 C.2     1  UNL1       -0.0307
      2 C          60.8539   87.0948   10.5461 C.2     1  UNL1       -0.0307
      3 C          61.2473   89.6235   10.9937 C.3     1  UNL1        0.0258
      4 C          62.3813   90.1297   10.1523 C.3     1  UNL1        0.0064
      5 C          63.1374   91.3555   10.5716 C.3     1  UNL1        0.0216
      6 C          63.9885   91.3258   11.8064 C.3     1  UNL1        0.0898
      7 C          64.2959   90.6957   14.3081 C.2     1  UNL1        0.2995
      8 O          65.7463   91.0687   14.2238 O.2     1  UNL1       -0.2652
      9 N          63.4170   90.8243   13.0994 N.am    1  UNL1       -0.2971
     10 H          62.4651   90.5794   13.1547 H       1  UNL1        0.1499
     11 C          62.9497   88.2211   17.1035 C.3     1  UNL1        0.1111
     12 N          63.5213   88.7228   15.8106 N.am    1  UNL1       -0.2954
     13 C          63.7244   90.1941   15.6011 C.2     1  UNL1        0.2996
     14 O          63.3559   91.1638   16.6845 O.2     1  UNL1       -0.2652
     15 H          63.7631   88.0863   15.0995 H       1  UNL1        0.1499
     16 C          62.2074   86.7838   11.1129 C.3     1  UNL1        0.0257
     17 C          62.4553   85.4642   11.7817 C.3     1  UNL1        0.0047
     18 C          62.8554   84.2723   10.9636 C.3     1  UNL1        0.0003
     19 C          64.1764   83.6046   11.2071 C.3     1  UNL1        0.0000
     20 C          64.2343   82.1280   11.4644 C.3     1  UNL1        0.0000
     21 C          62.9782   81.3093   11.4210 C.3     1  UNL1        0.0000
     22 C          62.7143   80.2839   12.4836 C.3     1  UNL1        0.0005
     23 C          62.6469   80.6968   13.9241 C.3     1  UNL1        0.0080
     24 C          61.8630   81.9127   14.3199 C.3     1  UNL1        0.0671
     25 C          62.5783   83.1731   14.7071 C.ar    1  UNL1        0.1574
     26 N          61.9334   84.4841   15.0466 N.ar    1  UNL1       -0.1130
     27 N          63.0206   85.4649   15.3722 N.ar    1  UNL1       -0.0232
     28 N          64.3374   84.7601   15.2339 N.ar    1  UNL1       -0.0466
     29 N          64.0640   83.3436   14.8229 N.ar    1  UNL1       -0.2422
     30 H          64.7409   82.6480   14.6580 H       1  UNL1        0.1920
@<TRIPOS>BOND
     1    11    12    1
     2    12    13   am
     3    13    14    2
     4    13     7    1
     5     7     8    2
     6     7     9   am
     7     9     6    1
     8     6     5    1
     9     5     4    1
    10     4     3    1
    11     3     1    1
    12     1     2    2
    13     2    16    1
    14    16    17    1
    15    17    18    1
    16    18    19    1
    17    19    20    1
    18    20    21    1
    19    21    22    1
    20    22    23    1
    21    23    24    1
    22    24    25    1
    23    25    26   ar
    24    26    27   ar
    25    27    28   ar
    26    28    29   ar
    27    29    25   ar
    28    12    15    1
    29     9    10    1
    30    29    30    1
