@<TRIPOS>MOLECULE
*****
 37 39 0 0 0
SMALL
GASTEIGER

@<TRIPOS>ATOM
      1 C          61.0809   86.3768   10.4424 C.3     1  UNL1        0.1777
      2 C          64.6460   91.9185   13.1279 C.3     1  UNL1        0.0307
      3 C          63.8524   90.8389   12.4536 C.ar    1  UNL1       -0.0242
      4 C          63.1150   91.1337   11.1811 C.ar    1  UNL1        0.0161
      5 C          62.3215   90.0540   10.5068 C.ar    1  UNL1        0.0996
      6 N          61.4981   90.0479    9.2529 N.ar    1  UNL1       -0.2138
      7 C          60.9332   88.6696    9.0762 C.ar    1  UNL1        0.1982
      8 N          61.4074   87.8240   10.2208 N.ar    1  UNL1       -0.2921
      9 C          62.2654   88.6796   11.1050 C.ar    1  UNL1        0.0799
     10 C          63.0028   88.3849   12.3774 C.ar    1  UNL1        0.0142
     11 C          63.7963   89.4645   13.0518 C.ar    1  UNL1       -0.0243
     12 C          64.5338   89.1697   14.3243 C.3     1  UNL1        0.0307
     13 N          60.0493   88.2164    7.9522 N.pl3   1  UNL1       -0.3042
     14 H          60.1021   87.2884    7.6278 H       1  UNL1        0.1496
     15 C          59.0848   89.1772    7.3224 C.3     1  UNL1        0.0921
     16 C          59.4365   89.8546    6.0311 C.3     1  UNL1        0.0530
     17 C          58.5249   90.9001    5.4600 C.3     1  UNL1        0.1389
     18 O          59.0205   92.3024    5.2660 O.3     1  UNL1       -0.3819
     19 H          59.2051   92.7026    6.1301 H       1  UNL1        0.2104
     20 C          62.1831   85.3622   10.5169 C.2     1  UNL1        0.1958
     21 O          63.0212   85.0749    9.3064 O.2     1  UNL1       -0.2893
     22 C          62.4473   84.6347   11.8018 C.ar    1  UNL1        0.0362
     23 C          62.3384   83.1394   11.8531 C.ar    1  UNL1        0.0016
     24 C          62.6026   82.4119   13.1380 C.ar    1  UNL1        0.0107
     25 C          62.9757   83.1797   14.3715 C.ar    1  UNL1        0.1255
     26 O          63.2399   82.4522   15.6564 O.3     1  UNL1       -0.5061
     27 C          63.0845   84.6748   14.3202 C.ar    1  UNL1        0.0107
     28 C          62.8203   85.4023   13.0353 C.ar    1  UNL1        0.0016
     29 H          63.1719   81.5182   15.6885 H       1  UNL1        0.2922
     30 C          62.4938   80.9168   13.1895 C.3     1  UNL1        0.0218
     31 C          61.1575   81.0372   13.8603 C.3     1  UNL1        0.0045
     32 C          63.8300   80.7964   12.5186 C.3     1  UNL1        0.0045
     33 C          62.3849   79.4217   13.2410 C.3     1  UNL1        0.0045
     34 C          63.4576   85.4425   15.5537 C.3     1  UNL1        0.0218
     35 C          64.8225   85.6936   14.9845 C.3     1  UNL1        0.0045
     36 C          62.0926   85.1913   16.1228 C.3     1  UNL1        0.0045
     37 C          63.8306   86.2101   16.7872 C.3     1  UNL1        0.0045
@<TRIPOS>BOND
     1     2     3    1
     2     3     4   ar
     3     4     5   ar
     4     5     6   ar
     5     6     7   ar
     6     7    13    1
     7    13    15    1
     8    15    16    1
     9    16    17    1
    10    17    18    1
    11     7     8   ar
    12     8     1    1
    13     1    20    1
    14    20    21    2
    15    20    22    1
    16    22    23   ar
    17    23    24   ar
    18    24    30    1
    19    30    31    1
    20    30    32    1
    21    30    33    1
    22    24    25   ar
    23    25    26    1
    24    25    27   ar
    25    27    34    1
    26    34    35    1
    27    34    36    1
    28    34    37    1
    29    27    28   ar
    30     8     9   ar
    31     9    10   ar
    32    10    11   ar
    33    11    12    1
    34    11     3   ar
    35     9     5   ar
    36    28    22   ar
    37    13    14    1
    38    18    19    1
    39    26    29    1
@<TRIPOS>MOLECULE
*****
 37 39 0 0 0
SMALL
GASTEIGER

@<TRIPOS>ATOM
      1 C          61.0822   86.3118   10.4147 C.3     1  UNL1        0.1777
      2 C          64.5694   91.9334   13.0357 C.3     1  UNL1        0.0307
      3 C          63.7909   90.8351   12.3741 C.ar    1  UNL1       -0.0242
      4 C          63.0480   91.1053   11.0993 C.ar    1  UNL1        0.0161
      5 C          62.2695   90.0071   10.4377 C.ar    1  UNL1        0.0996
      6 N          61.4451   89.9753    9.1849 N.ar    1  UNL1       -0.2138
      7 C          60.9000   88.5872    9.0238 C.ar    1  UNL1        0.1982
      8 N          61.3875   87.7611   10.1770 N.ar    1  UNL1       -0.2921
      9 C          62.2339   88.6386   11.0508 C.ar    1  UNL1        0.0799
     10 C          62.9768   88.3684   12.3256 C.ar    1  UNL1        0.0142
     11 C          63.7553   89.4667   12.9872 C.ar    1  UNL1       -0.0243
     12 C          64.4982   89.1964   14.2621 C.3     1  UNL1        0.0307
     13 N          60.0216   88.1091    7.9058 N.pl3   1  UNL1       -0.3042
     14 H          60.0902   87.1795    7.5890 H       1  UNL1        0.1496
     15 C          59.0387   89.0473    7.2705 C.3     1  UNL1        0.0921
     16 C          59.4424   89.8607    6.0766 C.3     1  UNL1        0.0530
     17 C          58.5106   90.9001    5.5274 C.3     1  UNL1        0.1389
     18 O          59.0200   92.2773    5.2211 O.3     1  UNL1       -0.3819
     19 H          59.2839   92.7152    6.0454 H       1  UNL1        0.2104
     20 C          62.1997   85.3158   10.5103 C.2     1  UNL1        0.1958
     21 O          63.0572   85.0335    9.3123 O.2     1  UNL1       -0.2893
     22 C          62.4597   84.6020   11.8037 C.ar    1  UNL1        0.0362
     23 C          62.8330   85.3825   13.0291 C.ar    1  UNL1        0.0016
     24 C          63.0930   84.6687   14.3225 C.ar    1  UNL1        0.0107
     25 C          62.9796   83.1745   14.3905 C.ar    1  UNL1        0.1255
     26 O          63.2396   82.4607   15.6839 O.3     1  UNL1       -0.5061
     27 C          62.6063   82.3941   13.1651 C.ar    1  UNL1        0.0107
     28 C          62.3463   83.1079   11.8717 C.ar    1  UNL1        0.0016
     29 H          63.4729   82.9482   16.4494 H       1  UNL1        0.2922
     30 C          63.4664   85.4490   15.5480 C.3     1  UNL1        0.0218
     31 C          64.8287   85.7006   14.9726 C.3     1  UNL1        0.0045
     32 C          62.1042   85.1975   16.1233 C.3     1  UNL1        0.0045
     33 C          63.8398   86.2294   16.7733 C.3     1  UNL1        0.0045
     34 C          62.4929   80.8999   13.2332 C.3     1  UNL1        0.0218
     35 C          61.1478   81.0317   13.8839 C.3     1  UNL1        0.0045
     36 C          63.8380   80.7683   12.5824 C.3     1  UNL1        0.0045
     37 C          62.3796   79.4058   13.3012 C.3     1  UNL1        0.0045
@<TRIPOS>BOND
     1     2     3    1
     2     3     4   ar
     3     4     5   ar
     4     5     6   ar
     5     6     7   ar
     6     7    13    1
     7    13    15    1
     8    15    16    1
     9    16    17    1
    10    17    18    1
    11     7     8   ar
    12     8     1    1
    13     1    20    1
    14    20    21    2
    15    20    22    1
    16    22    23   ar
    17    23    24   ar
    18    24    30    1
    19    30    31    1
    20    30    32    1
    21    30    33    1
    22    24    25   ar
    23    25    26    1
    24    25    27   ar
    25    27    34    1
    26    34    35    1
    27    34    36    1
    28    34    37    1
    29    27    28   ar
    30     8     9   ar
    31     9    10   ar
    32    10    11   ar
    33    11    12    1
    34    11     3   ar
    35     9     5   ar
    36    28    22   ar
    37    13    14    1
    38    18    19    1
    39    26    29    1
@<TRIPOS>MOLECULE
*****
 37 39 0 0 0
SMALL
GASTEIGER

@<TRIPOS>ATOM
      1 C          63.1299   85.2277   13.5268 C.3     1  UNL1        0.1777
      2 C          61.8985   85.2244    6.5185 C.3     1  UNL1        0.0307
      3 C          62.2401   85.1063    7.9743 C.ar    1  UNL1       -0.0242
      4 C          63.1272   83.9936    8.4486 C.ar    1  UNL1        0.0161
      5 C          63.4688   83.8755    9.9044 C.ar    1  UNL1        0.0996
      6 N          64.3122   82.8923   10.6609 N.ar    1  UNL1       -0.2138
      7 C          64.2878   83.2792   12.1099 C.ar    1  UNL1        0.1982
      8 N          63.4295   84.5015   12.2490 N.ar    1  UNL1       -0.2921
      9 C          62.9233   84.8700   10.8859 C.ar    1  UNL1        0.0799
     10 C          62.0362   85.9826   10.4116 C.ar    1  UNL1        0.0142
     11 C          61.6946   86.1007    8.9558 C.ar    1  UNL1       -0.0243
     12 C          60.8074   87.2135    8.4815 C.3     1  UNL1        0.0307
     13 N          64.9973   82.5686   13.2243 N.pl3   1  UNL1       -0.3042
     14 H          65.8023   82.9663   13.6280 H       1  UNL1        0.1496
     15 C          64.4801   81.2521   13.7236 C.3     1  UNL1        0.0921
     16 C          63.0466   80.8741   13.4953 C.3     1  UNL1        0.0530
     17 C          61.9610   81.5317   14.2948 C.3     1  UNL1        0.1389
     18 O          62.3110   82.5469   15.3421 O.3     1  UNL1       -0.3819
     19 H          62.8021   82.1158   16.0589 H       1  UNL1        0.2104
     20 C          64.0990   86.2418   14.0581 C.2     1  UNL1        0.1958
     21 O          65.2595   85.8010   14.9001 O.2     1  UNL1       -0.2893
     22 C          63.9076   87.6968   13.7475 C.ar    1  UNL1        0.0362
     23 C          64.5774   88.7387   14.5937 C.ar    1  UNL1        0.0016
     24 C          64.3860   90.1937   14.2831 C.ar    1  UNL1        0.0107
     25 C          63.5250   90.6067   13.1264 C.ar    1  UNL1        0.1255
     26 O          63.3336   92.0617   12.8158 O.3     1  UNL1       -0.5061
     27 C          62.8553   89.5648   12.2802 C.ar    1  UNL1        0.0107
     28 C          63.0466   88.1099   12.5908 C.ar    1  UNL1        0.0016
     29 H          63.7520   92.7125   13.3444 H       1  UNL1        0.2922
     30 C          65.0557   91.2356   15.1292 C.3     1  UNL1        0.0218
     31 C          63.9249   91.1639   16.1123 C.3     1  UNL1        0.0045
     32 C          66.1864   91.3073   14.1462 C.3     1  UNL1        0.0045
     33 C          65.7252   92.2776   15.9754 C.3     1  UNL1        0.0045
     34 C          61.9943   89.9779   11.1235 C.3     1  UNL1        0.0218
     35 C          63.2208   90.1901   10.2864 C.3     1  UNL1        0.0045
     36 C          60.7678   89.7657   11.9606 C.3     1  UNL1        0.0045
     37 C          61.1333   90.3910    9.9668 C.3     1  UNL1        0.0045
@<TRIPOS>BOND
     1     2     3    1
     2     3     4   ar
     3     4     5   ar
     4     5     6   ar
     5     6     7   ar
     6     7    13    1
     7    13    15    1
     8    15    16    1
     9    16    17    1
    10    17    18    1
    11     7     8   ar
    12     8     1    1
    13     1    20    1
    14    20    21    2
    15    20    22    1
    16    22    23   ar
    17    23    24   ar
    18    24    30    1
    19    30    31    1
    20    30    32    1
    21    30    33    1
    22    24    25   ar
    23    25    26    1
    24    25    27   ar
    25    27    34    1
    26    34    35    1
    27    34    36    1
    28    34    37    1
    29    27    28   ar
    30     8     9   ar
    31     9    10   ar
    32    10    11   ar
    33    11    12    1
    34    11     3   ar
    35     9     5   ar
    36    28    22   ar
    37    13    14    1
    38    18    19    1
    39    26    29    1
@<TRIPOS>MOLECULE
*****
 37 39 0 0 0
SMALL
GASTEIGER

@<TRIPOS>ATOM
      1 C          63.1242   85.2252   13.5249 C.3     1  UNL1        0.1777
      2 C          61.9079   85.2071    6.5140 C.3     1  UNL1        0.0307
      3 C          62.2463   85.0919    7.9708 C.ar    1  UNL1       -0.0242
      4 C          63.1311   83.9794    8.4496 C.ar    1  UNL1        0.0161
      5 C          63.4694   83.8642    9.9064 C.ar    1  UNL1        0.0996
      6 N          64.3100   82.8818   10.6670 N.ar    1  UNL1       -0.2138
      7 C          64.2829   83.2720   12.1150 C.ar    1  UNL1        0.1982
      8 N          63.4257   84.4956   12.2494 N.ar    1  UNL1       -0.2921
      9 C          62.9229   84.8616   10.8844 C.ar    1  UNL1        0.0799
     10 C          62.0381   85.9741   10.4056 C.ar    1  UNL1        0.0142
     11 C          61.6998   86.0893    8.9488 C.ar    1  UNL1       -0.0243
     12 C          60.8149   87.2019    8.4700 C.3     1  UNL1        0.0307
     13 N          64.9891   82.5632   13.2326 N.pl3   1  UNL1       -0.3042
     14 H          65.7806   82.9715   13.6522 H       1  UNL1        0.1496
     15 C          64.4894   81.2322   13.7109 C.3     1  UNL1        0.0921
     16 C          63.0395   80.8781   13.5623 C.3     1  UNL1        0.0530
     17 C          61.9983   81.6457   14.3219 C.3     1  UNL1        0.1389
     18 O          62.4085   82.5793   15.4219 O.3     1  UNL1       -0.3819
     19 H          62.7979   82.0700   16.1498 H       1  UNL1        0.2104
     20 C          64.0924   86.2408   14.0549 C.2     1  UNL1        0.1958
     21 O          65.2539   85.8020   14.8966 O.2     1  UNL1       -0.2893
     22 C          63.8993   87.6953   13.7433 C.ar    1  UNL1        0.0362
     23 C          63.0363   88.1066   12.5873 C.ar    1  UNL1        0.0016
     24 C          62.8432   89.5611   12.2757 C.ar    1  UNL1        0.0107
     25 C          63.5130   90.6043   13.1201 C.ar    1  UNL1        0.1255
     26 O          63.3199   92.0588   12.8085 O.3     1  UNL1       -0.5061
     27 C          64.3759   90.1931   14.2760 C.ar    1  UNL1        0.0107
     28 C          64.5691   88.7386   14.5876 C.ar    1  UNL1        0.0016
     29 H          62.7808   92.3157   12.0864 H       1  UNL1        0.2922
     30 C          61.9803   89.9723   11.1197 C.3     1  UNL1        0.0218
     31 C          60.7553   89.7640   11.9601 C.3     1  UNL1        0.0045
     32 C          63.2052   90.1807   10.2794 C.3     1  UNL1        0.0045
     33 C          61.1173   90.3836    9.9638 C.3     1  UNL1        0.0045
     34 C          65.0457   91.2364   15.1204 C.3     1  UNL1        0.0218
     35 C          66.1723   91.3123   14.1328 C.3     1  UNL1        0.0045
     36 C          63.9192   91.1605   16.1079 C.3     1  UNL1        0.0045
     37 C          65.7155   92.2797   15.9647 C.3     1  UNL1        0.0045
@<TRIPOS>BOND
     1     2     3    1
     2     3     4   ar
     3     4     5   ar
     4     5     6   ar
     5     6     7   ar
     6     7    13    1
     7    13    15    1
     8    15    16    1
     9    16    17    1
    10    17    18    1
    11     7     8   ar
    12     8     1    1
    13     1    20    1
    14    20    21    2
    15    20    22    1
    16    22    23   ar
    17    23    24   ar
    18    24    30    1
    19    30    31    1
    20    30    32    1
    21    30    33    1
    22    24    25   ar
    23    25    26    1
    24    25    27   ar
    25    27    34    1
    26    34    35    1
    27    34    36    1
    28    34    37    1
    29    27    28   ar
    30     8     9   ar
    31     9    10   ar
    32    10    11   ar
    33    11    12    1
    34    11     3   ar
    35     9     5   ar
    36    28    22   ar
    37    13    14    1
    38    18    19    1
    39    26    29    1
@<TRIPOS>MOLECULE
*****
 37 39 0 0 0
SMALL
GASTEIGER

@<TRIPOS>ATOM
      1 C          61.2442   87.4749   10.8002 C.3     1  UNL1        0.1777
      2 C          65.6205   91.8235   14.3456 C.3     1  UNL1        0.0307
      3 C          64.6886   91.0109   13.4962 C.ar    1  UNL1       -0.0242
      4 C          64.1789   91.5664   12.1995 C.ar    1  UNL1        0.0161
      5 C          63.2470   90.7538   11.3502 C.ar    1  UNL1        0.0996
      6 N          62.5859   91.0355   10.0335 N.ar    1  UNL1       -0.2138
      7 C          61.7551   89.8414    9.6672 C.ar    1  UNL1        0.1982
      8 N          61.9028   88.8219   10.7575 N.ar    1  UNL1       -0.2921
      9 C          62.8249   89.3858   11.7976 C.ar    1  UNL1        0.0799
     10 C          63.3346   88.8303   13.0944 C.ar    1  UNL1        0.0142
     11 C          64.2665   89.6429   13.9437 C.ar    1  UNL1       -0.0243
     12 C          64.7762   89.0874   15.2405 C.3     1  UNL1        0.0307
     13 N          60.9228   89.6930    8.4281 N.pl3   1  UNL1       -0.3042
     14 H          61.2585   90.0303    7.5663 H       1  UNL1        0.1496
     15 C          59.5790   89.0306    8.5022 C.3     1  UNL1        0.0921
     16 C          59.1714   88.0418    7.4505 C.3     1  UNL1        0.0530
     17 C          58.9313   86.6083    7.8216 C.3     1  UNL1        0.1389
     18 O          59.8591   85.5395    7.3247 O.3     1  UNL1       -0.3819
     19 H          59.7868   85.4716    6.3598 H       1  UNL1        0.2104
     20 C          62.0086   86.2528   10.3855 C.2     1  UNL1        0.1958
     21 O          62.3583   86.0406    8.9423 O.2     1  UNL1       -0.2893
     22 C          62.4233   85.2427   11.4140 C.ar    1  UNL1        0.0362
     23 C          62.8116   85.6912   12.7918 C.ar    1  UNL1        0.0016
     24 C          63.2264   84.6811   13.8202 C.ar    1  UNL1        0.0107
     25 C          63.2527   83.2225   13.4709 C.ar    1  UNL1        0.1255
     26 O          63.6674   82.2124   14.4993 O.3     1  UNL1       -0.5061
     27 C          62.8644   82.7741   12.0932 C.ar    1  UNL1        0.0107
     28 C          62.4497   83.7841   11.0648 C.ar    1  UNL1        0.0016
     29 H          63.9100   82.4926   15.3600 H       1  UNL1        0.2922
     30 C          63.6147   85.1294   15.1979 C.3     1  UNL1        0.0218
     31 C          62.2479   84.7693   15.7003 C.3     1  UNL1        0.0045
     32 C          64.9814   85.4896   14.6956 C.3     1  UNL1        0.0045
     33 C          64.0030   85.5778   16.5757 C.3     1  UNL1        0.0045
     34 C          62.8908   81.3155   11.7440 C.3     1  UNL1        0.0218
     35 C          62.0145   81.0171   12.9243 C.3     1  UNL1        0.0045
     36 C          63.7670   81.6140   10.5637 C.3     1  UNL1        0.0045
     37 C          62.9172   79.8570   11.3947 C.3     1  UNL1        0.0045
@<TRIPOS>BOND
     1     2     3    1
     2     3     4   ar
     3     4     5   ar
     4     5     6   ar
     5     6     7   ar
     6     7    13    1
     7    13    15    1
     8    15    16    1
     9    16    17    1
    10    17    18    1
    11     7     8   ar
    12     8     1    1
    13     1    20    1
    14    20    21    2
    15    20    22    1
    16    22    23   ar
    17    23    24   ar
    18    24    30    1
    19    30    31    1
    20    30    32    1
    21    30    33    1
    22    24    25   ar
    23    25    26    1
    24    25    27   ar
    25    27    34    1
    26    34    35    1
    27    34    36    1
    28    34    37    1
    29    27    28   ar
    30     8     9   ar
    31     9    10   ar
    32    10    11   ar
    33    11    12    1
    34    11     3   ar
    35     9     5   ar
    36    28    22   ar
    37    13    14    1
    38    18    19    1
    39    26    29    1
@<TRIPOS>MOLECULE
*****
 37 39 0 0 0
SMALL
GASTEIGER

@<TRIPOS>ATOM
      1 C          61.3163   87.5516   10.9028 C.3     1  UNL1        0.1777
      2 C          65.7513   91.9587   14.3000 C.3     1  UNL1        0.0307
      3 C          64.8048   91.1323   13.4807 C.ar    1  UNL1       -0.0242
      4 C          64.2689   91.6681   12.1862 C.ar    1  UNL1        0.0161
      5 C          63.3225   90.8417   11.3669 C.ar    1  UNL1        0.0996
      6 N          62.6354   91.1032   10.0593 N.ar    1  UNL1       -0.2138
      7 C          61.8002   89.9025    9.7263 C.ar    1  UNL1        0.1982
      8 N          61.9712   88.8990   10.8281 N.ar    1  UNL1       -0.2921
      9 C          62.9120   89.4795   11.8420 C.ar    1  UNL1        0.0799
     10 C          63.4479   88.9437   13.1364 C.ar    1  UNL1        0.0142
     11 C          64.3943   89.7701   13.9558 C.ar    1  UNL1       -0.0243
     12 C          64.9302   89.2342   15.2503 C.3     1  UNL1        0.0307
     13 N          60.9444   89.7347    8.5059 N.pl3   1  UNL1       -0.3042
     14 H          61.2356   90.1125    7.6447 H       1  UNL1        0.1496
     15 C          59.6448   88.9914    8.5976 C.3     1  UNL1        0.0921
     16 C          59.0839   88.3092    7.3853 C.3     1  UNL1        0.0530
     17 C          59.3942   86.8645    7.1266 C.3     1  UNL1        0.1389
     18 O          59.6288   85.9303    8.2764 O.3     1  UNL1       -0.3819
     19 H          60.4386   86.1892    8.7434 H       1  UNL1        0.2104
     20 C          62.0750   86.3250   10.4908 C.2     1  UNL1        0.1958
     21 O          62.4396   86.1172    9.0506 O.2     1  UNL1       -0.2893
     22 C          62.4691   85.3062   11.5187 C.ar    1  UNL1        0.0362
     23 C          62.4881   83.8493   11.1619 C.ar    1  UNL1        0.0016
     24 C          62.8822   82.8305   12.1899 C.ar    1  UNL1        0.0107
     25 C          63.2574   83.2686   13.5746 C.ar    1  UNL1        0.1255
     26 O          63.6515   82.2498   14.6025 O.3     1  UNL1       -0.5061
     27 C          63.2384   84.7254   13.9313 C.ar    1  UNL1        0.0107
     28 C          62.8443   85.7442   12.9034 C.ar    1  UNL1        0.0016
     29 H          63.6634   81.3398   14.3797 H       1  UNL1        0.2922
     30 C          62.9012   81.3737   11.8332 C.3     1  UNL1        0.0218
     31 C          61.9979   81.0779   12.9937 C.3     1  UNL1        0.0045
     32 C          63.8045   81.6695   10.6728 C.3     1  UNL1        0.0045
     33 C          62.9201   79.9168   11.4766 C.3     1  UNL1        0.0045
     34 C          63.6136   85.1634   15.3160 C.3     1  UNL1        0.0218
     35 C          64.9709   85.5665   14.8207 C.3     1  UNL1        0.0045
     36 C          62.2563   84.7603   15.8113 C.3     1  UNL1        0.0045
     37 C          63.9888   85.6015   16.7007 C.3     1  UNL1        0.0045
@<TRIPOS>BOND
     1     2     3    1
     2     3     4   ar
     3     4     5   ar
     4     5     6   ar
     5     6     7   ar
     6     7    13    1
     7    13    15    1
     8    15    16    1
     9    16    17    1
    10    17    18    1
    11     7     8   ar
    12     8     1    1
    13     1    20    1
    14    20    21    2
    15    20    22    1
    16    22    23   ar
    17    23    24   ar
    18    24    30    1
    19    30    31    1
    20    30    32    1
    21    30    33    1
    22    24    25   ar
    23    25    26    1
    24    25    27   ar
    25    27    34    1
    26    34    35    1
    27    34    36    1
    28    34    37    1
    29    27    28   ar
    30     8     9   ar
    31     9    10   ar
    32    10    11   ar
    33    11    12    1
    34    11     3   ar
    35     9     5   ar
    36    28    22   ar
    37    13    14    1
    38    18    19    1
    39    26    29    1
@<TRIPOS>MOLECULE
*****
 37 39 0 0 0
SMALL
GASTEIGER

@<TRIPOS>ATOM
      1 C          62.2310   89.3310   12.2488 C.3     1  UNL1        0.1777
      2 C          63.9109   82.4278   12.6431 C.3     1  UNL1        0.0307
      3 C          63.4685   83.8479   12.4491 C.ar    1  UNL1       -0.0242
      4 C          62.4800   84.1851   11.3725 C.ar    1  UNL1        0.0161
      5 C          62.0376   85.6052   11.1785 C.ar    1  UNL1        0.0996
      6 N          61.0831   86.2354   10.2080 N.ar    1  UNL1       -0.2138
      7 C          61.0393   87.7079   10.4908 C.ar    1  UNL1        0.1982
      8 N          61.9668   87.9876   11.6361 N.ar    1  UNL1       -0.2921
      9 C          62.5838   86.6881   12.0610 C.ar    1  UNL1        0.0799
     10 C          63.5723   86.3509   13.1376 C.ar    1  UNL1        0.0142
     11 C          64.0147   84.9308   13.3316 C.ar    1  UNL1       -0.0243
     12 C          65.0033   84.5937   14.4083 C.3     1  UNL1        0.0307
     13 N          60.2132   88.7225    9.7572 N.pl3   1  UNL1       -0.3042
     14 H          59.6612   89.3642   10.2599 H       1  UNL1        0.1496
     15 C          60.2281   88.7593    8.2578 C.3     1  UNL1        0.0921
     16 C          59.1233   88.1073    7.4805 C.3     1  UNL1        0.0530
     17 C          58.7694   86.6728    7.7394 C.3     1  UNL1        0.1389
     18 O          59.7306   85.5839    7.3651 O.3     1  UNL1       -0.3819
     19 H          59.8274   85.5556    6.4003 H       1  UNL1        0.2104
     20 C          62.7585   90.4510   11.4019 C.2     1  UNL1        0.1958
     21 O          62.0900   90.7875   10.1019 O.2     1  UNL1       -0.2893
     22 C          63.9547   91.2346   11.8548 C.ar    1  UNL1        0.0362
     23 C          64.7345   92.0510   10.8671 C.ar    1  UNL1        0.0016
     24 C          65.9306   92.8347   11.3200 C.ar    1  UNL1        0.0107
     25 C          66.3470   92.8018   12.7607 C.ar    1  UNL1        0.1255
     26 O          67.5431   93.5854   13.2137 O.3     1  UNL1       -0.5061
     27 C          65.5673   91.9855   13.7484 C.ar    1  UNL1        0.0107
     28 C          64.3711   91.2019   13.2955 C.ar    1  UNL1        0.0016
     29 H          68.0302   94.0954   12.5967 H       1  UNL1        0.2922
     30 C          66.7104   93.6510   10.3324 C.3     1  UNL1        0.0218
     31 C          65.8132   94.8244   10.5941 C.3     1  UNL1        0.0045
     32 C          67.6075   92.4777   10.0706 C.3     1  UNL1        0.0045
     33 C          67.4901   94.4675    9.3448 C.3     1  UNL1        0.0045
     34 C          65.9837   91.9527   15.1891 C.3     1  UNL1        0.0218
     35 C          64.5803   92.2842   15.6022 C.3     1  UNL1        0.0045
     36 C          67.3871   91.6212   14.7759 C.3     1  UNL1        0.0045
     37 C          66.4002   91.9200   16.6298 C.3     1  UNL1        0.0045
@<TRIPOS>BOND
     1     2     3    1
     2     3     4   ar
     3     4     5   ar
     4     5     6   ar
     5     6     7   ar
     6     7    13    1
     7    13    15    1
     8    15    16    1
     9    16    17    1
    10    17    18    1
    11     7     8   ar
    12     8     1    1
    13     1    20    1
    14    20    21    2
    15    20    22    1
    16    22    23   ar
    17    23    24   ar
    18    24    30    1
    19    30    31    1
    20    30    32    1
    21    30    33    1
    22    24    25   ar
    23    25    26    1
    24    25    27   ar
    25    27    34    1
    26    34    35    1
    27    34    36    1
    28    34    37    1
    29    27    28   ar
    30     8     9   ar
    31     9    10   ar
    32    10    11   ar
    33    11    12    1
    34    11     3   ar
    35     9     5   ar
    36    28    22   ar
    37    13    14    1
    38    18    19    1
    39    26    29    1
@<TRIPOS>MOLECULE
*****
 37 39 0 0 0
SMALL
GASTEIGER

@<TRIPOS>ATOM
      1 C          62.4275   89.0676   12.3222 C.3     1  UNL1        0.1777
      2 C          64.0335   82.1359   12.2598 C.3     1  UNL1        0.0307
      3 C          63.6464   83.5798   12.1363 C.ar    1  UNL1       -0.0242
      4 C          63.0373   84.0867   10.8628 C.ar    1  UNL1        0.0161
      5 C          62.6503   85.5307   10.7393 C.ar    1  UNL1        0.0996
      6 N          62.0347   86.3123    9.6167 N.ar    1  UNL1       -0.2138
      7 C          61.8763   87.7324   10.0730 C.ar    1  UNL1        0.1982
      8 N          62.3940   87.8284   11.4776 N.ar    1  UNL1       -0.2921
      9 C          62.8724   86.4677   11.8893 C.ar    1  UNL1        0.0799
     10 C          63.4815   85.9607   13.1629 C.ar    1  UNL1        0.0142
     11 C          63.8685   84.5168   13.2864 C.ar    1  UNL1       -0.0243
     12 C          64.4776   84.0099   14.5600 C.3     1  UNL1        0.0307
     13 N          61.3012   88.8588    9.2664 N.pl3   1  UNL1       -0.3042
     14 H          61.8732   89.6134    8.9969 H       1  UNL1        0.1496
     15 C          59.8546   88.8355    8.8705 C.3     1  UNL1        0.0921
     16 C          59.4292   88.1143    7.6260 C.3     1  UNL1        0.0530
     17 C          58.9261   86.7037    7.7113 C.3     1  UNL1        0.1389
     18 O          59.8372   85.5608    7.3742 O.3     1  UNL1       -0.3819
     19 H          60.0642   85.5954    6.4318 H       1  UNL1        0.2104
     20 C          62.6724   90.4032   11.6849 C.2     1  UNL1        0.1958
     21 O          61.6779   90.9636   10.7117 O.2     1  UNL1       -0.2893
     22 C          63.9118   91.1785   12.0207 C.ar    1  UNL1        0.0362
     23 C          64.4363   91.1824   13.4261 C.ar    1  UNL1        0.0016
     24 C          65.6756   91.9578   13.7620 C.ar    1  UNL1        0.0107
     25 C          66.3905   92.7292   12.6924 C.ar    1  UNL1        0.1255
     26 O          67.6299   93.5046   13.0283 O.3     1  UNL1       -0.5061
     27 C          65.8661   92.7253   11.2871 C.ar    1  UNL1        0.0107
     28 C          64.6267   91.9500   10.9513 C.ar    1  UNL1        0.0016
     29 H          67.9575   93.5070   13.9061 H       1  UNL1        0.2922
     30 C          66.2002   91.9617   15.1672 C.3     1  UNL1        0.0218
     31 C          64.8485   92.3741   15.6705 C.3     1  UNL1        0.0045
     32 C          67.5517   91.5494   14.6640 C.3     1  UNL1        0.0045
     33 C          66.7246   91.9657   16.5726 C.3     1  UNL1        0.0045
     34 C          66.5810   93.4968   10.2176 C.3     1  UNL1        0.0218
     35 C          65.6834   94.6727   10.4660 C.3     1  UNL1        0.0045
     36 C          67.4785   92.3208    9.9693 C.3     1  UNL1        0.0045
     37 C          67.2959   94.2682    9.1482 C.3     1  UNL1        0.0045
@<TRIPOS>BOND
     1     2     3    1
     2     3     4   ar
     3     4     5   ar
     4     5     6   ar
     5     6     7   ar
     6     7    13    1
     7    13    15    1
     8    15    16    1
     9    16    17    1
    10    17    18    1
    11     7     8   ar
    12     8     1    1
    13     1    20    1
    14    20    21    2
    15    20    22    1
    16    22    23   ar
    17    23    24   ar
    18    24    30    1
    19    30    31    1
    20    30    32    1
    21    30    33    1
    22    24    25   ar
    23    25    26    1
    24    25    27   ar
    25    27    34    1
    26    34    35    1
    27    34    36    1
    28    34    37    1
    29    27    28   ar
    30     8     9   ar
    31     9    10   ar
    32    10    11   ar
    33    11    12    1
    34    11     3   ar
    35     9     5   ar
    36    28    22   ar
    37    13    14    1
    38    18    19    1
    39    26    29    1
@<TRIPOS>MOLECULE
*****
 37 39 0 0 0
SMALL
GASTEIGER

@<TRIPOS>ATOM
      1 C          62.6301   89.4644   11.2300 C.3     1  UNL1        0.1777
      2 C          63.9049   83.2256   14.4054 C.3     1  UNL1        0.0307
      3 C          63.5490   84.4681   13.6441 C.ar    1  UNL1       -0.0242
      4 C          62.6102   84.3895   12.4770 C.ar    1  UNL1        0.0161
      5 C          62.2543   85.6320   11.7157 C.ar    1  UNL1        0.0996
      6 N          61.3631   85.8628   10.5313 N.ar    1  UNL1       -0.2138
      7 C          61.3954   87.3265   10.2052 C.ar    1  UNL1        0.1982
      8 N          62.3065   88.0003   11.1880 N.ar    1  UNL1       -0.2921
      9 C          62.8373   86.9531   12.1215 C.ar    1  UNL1        0.0799
     10 C          63.7762   87.0317   13.2887 C.ar    1  UNL1        0.0142
     11 C          64.1321   85.7892   14.0500 C.ar    1  UNL1       -0.0243
     12 C          65.0710   85.8678   15.2172 C.3     1  UNL1        0.0307
     13 N          60.6479   87.9985    9.0918 N.pl3   1  UNL1       -0.3042
     14 H          61.0274   88.7947    8.6543 H       1  UNL1        0.1496
     15 C          59.3222   87.4575    8.6449 C.3     1  UNL1        0.0921
     16 C          59.2358   86.6094    7.4107 C.3     1  UNL1        0.0530
     17 C          60.1841   85.4628    7.2207 C.3     1  UNL1        0.1389
     18 O          61.6420   85.6366    7.5277 O.3     1  UNL1       -0.3819
     19 H          62.0297   86.2726    6.9063 H       1  UNL1        0.2104
     20 C          62.9387   90.1271   12.5397 C.2     1  UNL1        0.1958
     21 O          62.0379   89.9122   13.7197 O.2     1  UNL1       -0.2893
     22 C          64.1482   91.0047   12.6696 C.ar    1  UNL1        0.0362
     23 C          64.6437   91.7793   11.4843 C.ar    1  UNL1        0.0016
     24 C          65.8532   92.6569   11.6142 C.ar    1  UNL1        0.0107
     25 C          66.5672   92.7600   12.9294 C.ar    1  UNL1        0.1255
     26 O          67.7767   93.6376   13.0593 O.3     1  UNL1       -0.5061
     27 C          66.0718   91.9855   14.1146 C.ar    1  UNL1        0.0107
     28 C          64.8623   91.1079   13.9847 C.ar    1  UNL1        0.0016
     29 H          68.0862   94.1214   12.3189 H       1  UNL1        0.2922
     30 C          66.3487   93.4313   10.4291 C.3     1  UNL1        0.0218
     31 C          67.2523   92.2916   10.0621 C.3     1  UNL1        0.0045
     32 C          65.4452   94.5711   10.7960 C.3     1  UNL1        0.0045
     33 C          66.8443   94.2057    9.2439 C.3     1  UNL1        0.0045
     34 C          66.7859   92.0887   15.4297 C.3     1  UNL1        0.0218
     35 C          68.0261   91.5267   14.8003 C.3     1  UNL1        0.0045
     36 C          65.5456   92.6507   16.0590 C.3     1  UNL1        0.0045
     37 C          67.4999   92.1919   16.7448 C.3     1  UNL1        0.0045
@<TRIPOS>BOND
     1     2     3    1
     2     3     4   ar
     3     4     5   ar
     4     5     6   ar
     5     6     7   ar
     6     7    13    1
     7    13    15    1
     8    15    16    1
     9    16    17    1
    10    17    18    1
    11     7     8   ar
    12     8     1    1
    13     1    20    1
    14    20    21    2
    15    20    22    1
    16    22    23   ar
    17    23    24   ar
    18    24    30    1
    19    30    31    1
    20    30    32    1
    21    30    33    1
    22    24    25   ar
    23    25    26    1
    24    25    27   ar
    25    27    34    1
    26    34    35    1
    27    34    36    1
    28    34    37    1
    29    27    28   ar
    30     8     9   ar
    31     9    10   ar
    32    10    11   ar
    33    11    12    1
    34    11     3   ar
    35     9     5   ar
    36    28    22   ar
    37    13    14    1
    38    18    19    1
    39    26    29    1
