@<TRIPOS>MOLECULE
*****
 33 36 0 0 0
SMALL
GASTEIGER

@<TRIPOS>ATOM
      1 C          62.7448   88.0049   11.8278 C.ar    1  UNL1        0.1074
      2 C          62.0002   88.8973   10.8795 C.ar    1  UNL1        0.0588
      3 S          62.2986   90.3197   11.2505 S.2     1  UNL1       -0.0508
      4 C          63.2278   90.3065   12.4281 C.ar    1  UNL1        0.1646
      5 N          63.5035   88.8758   12.7848 N.ar    1  UNL1       -0.2224
      6 C          63.0761   84.2460   13.0570 C.ar    1  UNL1        0.2416
      7 N          63.0880   85.7459   13.0644 N.ar    1  UNL1       -0.2089
      8 C          62.7329   86.5049   11.8203 C.ar    1  UNL1        0.1026
      9 C          62.3660   85.7640   10.5688 C.ar    1  UNL1        0.0224
     10 C          62.3541   84.2641   10.5614 C.ar    1  UNL1        0.0239
     11 C          62.7092   83.5051   11.8055 C.ar    1  UNL1        0.1189
     12 N          62.6973   82.0051   11.7981 N.ar    1  UNL1       -0.2826
     13 C          62.4623   81.1194   12.9856 C.ar    1  UNL1        0.1826
     14 N          62.5381   79.6944   12.5232 N.ar    1  UNL1       -0.2280
     15 C          62.8198   79.6995   11.0498 C.ar    1  UNL1        0.0786
     16 C          62.9758   78.4891   10.1778 C.3     1  UNL1        0.0538
     17 C          62.9182   81.1276   10.6017 C.ar    1  UNL1        0.0963
     18 C          62.7207   83.7829   15.5887 C.3     1  UNL1        0.2543
     19 O          63.4311   83.4870   14.3012 O.3     1  UNL1       -0.4551
     20 N          63.7835   91.5121   13.1262 N.pl3   1  UNL1       -0.2784
     21 H          63.3410   91.8611   13.9335 H       1  UNL1        0.1555
     22 C          65.0135   92.1862   12.5945 C.ar    1  UNL1        0.1316
     23 C          65.2136   92.6756   11.1907 C.ar    1  UNL1        0.0505
     24 C          66.5831   93.2811   11.1017 C.ar    1  UNL1        0.0807
     25 N          67.2294   93.1658   12.4505 N.ar    1  UNL1       -0.1727
     26 N          66.2593   92.4891   13.3730 N.ar    1  UNL1       -0.2399
     27 C          67.1983   93.8941    9.8788 C.3     1  UNL1        0.0372
     28 C          66.4366   95.1616   10.1311 C.3     1  UNL1        0.0060
     29 C          67.9599   92.6267    9.6266 C.3     1  UNL1        0.0060
     30 C          67.8135   94.5073    8.6558 C.3     1  UNL1        0.0060
     31 C          66.4939   92.1712   14.8200 C.3     1  UNL1        0.1066
     32 C          67.8563   91.7486   15.2838 C.3     1  UNL1        0.0264
     33 C          65.3659   92.2759   15.8033 C.3     1  UNL1        0.0264
@<TRIPOS>BOND
     1    18    19    1
     2    19     6    1
     3     6     7   ar
     4     7     8   ar
     5     8     1    1
     6     1     2   ar
     7     2     3   ar
     8     3     4   ar
     9     4    20    1
    10    20    22    1
    11    22    23   ar
    12    23    24   ar
    13    24    27    1
    14    27    28    1
    15    27    29    1
    16    27    30    1
    17    24    25   ar
    18    25    26   ar
    19    26    31    1
    20    31    32    1
    21    31    33    1
    22     4     5   ar
    23     8     9   ar
    24     9    10   ar
    25    10    11   ar
    26    11    12    1
    27    12    13   ar
    28    13    14   ar
    29    14    15   ar
    30    15    16    1
    31    15    17   ar
    32    11     6   ar
    33    17    12   ar
    34     5     1   ar
    35    26    22   ar
    36    20    21    1
@<TRIPOS>MOLECULE
*****
 33 36 0 0 0
SMALL
GASTEIGER

@<TRIPOS>ATOM
      1 C          64.2108   89.6419   14.3113 C.ar    1  UNL1        0.1074
      2 C          63.6936   89.6329   15.7193 C.ar    1  UNL1        0.0588
      3 S          63.3229   88.2218   16.0678 S.2     1  UNL1       -0.0508
      4 C          63.6110   87.3588   14.8752 C.ar    1  UNL1        0.1646
      5 N          64.1598   88.2365   13.7897 N.ar    1  UNL1       -0.2224
      6 C          66.2016   92.9567   13.4173 C.ar    1  UNL1        0.2416
      7 N          65.7181   91.7535   14.1712 N.ar    1  UNL1       -0.2089
      8 C          64.6943   90.8452   13.5573 C.ar    1  UNL1        0.1026
      9 C          64.1539   91.1402   12.1895 C.ar    1  UNL1        0.0224
     10 C          64.6374   92.3434   11.4356 C.ar    1  UNL1        0.0239
     11 C          65.6612   93.2517   12.0494 C.ar    1  UNL1        0.1189
     12 N          66.1446   94.4550   11.2954 N.ar    1  UNL1       -0.2826
     13 C          66.1577   95.8666   11.8025 C.ar    1  UNL1        0.1826
     14 N          66.7210   96.7419   10.7225 N.ar    1  UNL1       -0.2280
     15 C          67.0561   95.8712    9.5478 C.ar    1  UNL1        0.0786
     16 C          67.6442   96.3329    8.2474 C.3     1  UNL1        0.0538
     17 C          66.6999   94.4578    9.9020 C.ar    1  UNL1        0.0963
     18 C          67.8681   93.4975   15.3357 C.3     1  UNL1        0.2543
     19 O          67.2254   93.8650   14.0311 O.3     1  UNL1       -0.4551
     20 N          63.3892   85.8781   14.7842 N.pl3   1  UNL1       -0.2784
     21 H          63.4293   85.3235   15.5966 H       1  UNL1        0.1555
     22 C          63.1064   85.2423   13.4553 C.ar    1  UNL1        0.1316
     23 C          62.9951   85.9577   12.1415 C.ar    1  UNL1        0.0505
     24 C          62.7051   84.9371   11.0812 C.ar    1  UNL1        0.0807
     25 N          62.6371   83.5911   11.7397 N.ar    1  UNL1       -0.1727
     26 N          62.8851   83.7797   13.2069 N.ar    1  UNL1       -0.2399
     27 C          62.5162   85.2140    9.6192 C.3     1  UNL1        0.0372
     28 C          63.5533   84.1815    9.2897 C.3     1  UNL1        0.0060
     29 C          61.4793   86.2465    9.9486 C.3     1  UNL1        0.0060
     30 C          62.3274   85.4909    8.1570 C.3     1  UNL1        0.0060
     31 C          62.9078   82.6960   14.2438 C.3     1  UNL1        0.1066
     32 C          63.9755   82.6883   15.2973 C.3     1  UNL1        0.0264
     33 C          61.8628   81.6200   14.2271 C.3     1  UNL1        0.0264
@<TRIPOS>BOND
     1    18    19    1
     2    19     6    1
     3     6     7   ar
     4     7     8   ar
     5     8     1    1
     6     1     2   ar
     7     2     3   ar
     8     3     4   ar
     9     4    20    1
    10    20    22    1
    11    22    23   ar
    12    23    24   ar
    13    24    27    1
    14    27    28    1
    15    27    29    1
    16    27    30    1
    17    24    25   ar
    18    25    26   ar
    19    26    31    1
    20    31    32    1
    21    31    33    1
    22     4     5   ar
    23     8     9   ar
    24     9    10   ar
    25    10    11   ar
    26    11    12    1
    27    12    13   ar
    28    13    14   ar
    29    14    15   ar
    30    15    16    1
    31    15    17   ar
    32    11     6   ar
    33    17    12   ar
    34     5     1   ar
    35    26    22   ar
    36    20    21    1
@<TRIPOS>MOLECULE
*****
 33 36 0 0 0
SMALL
GASTEIGER

@<TRIPOS>ATOM
      1 C          62.6633   88.8368   11.3932 C.ar    1  UNL1        0.1074
      2 C          61.4946   89.6057   10.8518 C.ar    1  UNL1        0.0588
      3 S          61.9508   91.0073   10.5735 S.2     1  UNL1       -0.0508
      4 C          63.4014   91.1047   10.9428 C.ar    1  UNL1        0.1646
      5 N          63.8417   89.7632   11.4494 N.ar    1  UNL1       -0.2224
      6 C          63.4129   85.5153   13.4317 C.ar    1  UNL1        0.2416
      7 N          63.4212   86.9573   13.0189 N.ar    1  UNL1       -0.2089
      8 C          62.6549   87.3947   11.8059 C.ar    1  UNL1        0.1026
      9 C          61.8804   86.3900   11.0055 C.ar    1  UNL1        0.0224
     10 C          61.8722   84.9479   11.4182 C.ar    1  UNL1        0.0239
     11 C          62.6384   84.5106   12.6313 C.ar    1  UNL1        0.1189
     12 N          62.6301   83.0684   13.0440 N.ar    1  UNL1       -0.2826
     13 C          62.6337   82.5546   14.4532 C.ar    1  UNL1        0.1826
     14 N          62.6226   81.0556   14.4000 N.ar    1  UNL1       -0.2280
     15 C          62.6121   80.6430   12.9579 C.ar    1  UNL1        0.0786
     16 C          62.5992   79.2338   12.4441 C.3     1  UNL1        0.0538
     17 C          62.6168   81.8870   12.1198 C.ar    1  UNL1        0.0963
     18 C          63.9475   85.7555   15.9628 C.3     1  UNL1        0.2543
     19 O          64.1792   85.0779   14.6447 O.3     1  UNL1       -0.4551
     20 N          64.2607   92.3285   10.8261 N.pl3   1  UNL1       -0.2784
     21 H          64.0397   93.0240   10.1652 H       1  UNL1        0.1555
     22 C          65.4569   92.4928   11.7161 C.ar    1  UNL1        0.1316
     23 C          65.4872   92.2795   13.2007 C.ar    1  UNL1        0.0505
     24 C          66.8817   92.5540   13.6800 C.ar    1  UNL1        0.0807
     25 N          67.7133   92.9370   12.4918 N.ar    1  UNL1       -0.1727
     26 N          66.8327   92.8991   11.2781 N.ar    1  UNL1       -0.2399
     27 C          67.3606   92.4618   15.0985 C.3     1  UNL1        0.0372
     28 C          68.7820   92.5111   14.6218 C.3     1  UNL1        0.0060
     29 C          65.9392   92.4125   15.5751 C.3     1  UNL1        0.0060
     30 C          67.8395   92.3696   16.5170 C.3     1  UNL1        0.0060
     31 C          67.2540   93.2126    9.8730 C.3     1  UNL1        0.1066
     32 C          68.1628   92.2743    9.1356 C.3     1  UNL1        0.0264
     33 C          66.7665   94.4642    9.2054 C.3     1  UNL1        0.0264
@<TRIPOS>BOND
     1    18    19    1
     2    19     6    1
     3     6     7   ar
     4     7     8   ar
     5     8     1    1
     6     1     2   ar
     7     2     3   ar
     8     3     4   ar
     9     4    20    1
    10    20    22    1
    11    22    23   ar
    12    23    24   ar
    13    24    27    1
    14    27    28    1
    15    27    29    1
    16    27    30    1
    17    24    25   ar
    18    25    26   ar
    19    26    31    1
    20    31    32    1
    21    31    33    1
    22     4     5   ar
    23     8     9   ar
    24     9    10   ar
    25    10    11   ar
    26    11    12    1
    27    12    13   ar
    28    13    14   ar
    29    14    15   ar
    30    15    16    1
    31    15    17   ar
    32    11     6   ar
    33    17    12   ar
    34     5     1   ar
    35    26    22   ar
    36    20    21    1
@<TRIPOS>MOLECULE
*****
 33 36 0 0 0
SMALL
GASTEIGER

@<TRIPOS>ATOM
      1 C          63.6687   87.9164   14.2010 C.ar    1  UNL1        0.1074
      2 C          63.7499   88.3782   15.6258 C.ar    1  UNL1        0.0588
      3 S          63.9002   89.8706   15.6215 S.2     1  UNL1       -0.0508
      4 C          63.9119   90.3313   14.1940 C.ar    1  UNL1        0.1646
      5 N          63.7688   89.1235   13.3161 N.ar    1  UNL1       -0.2224
      6 C          62.6692   84.7797   11.9846 C.ar    1  UNL1        0.2416
      7 N          62.8235   86.1993   12.4440 N.ar    1  UNL1       -0.2089
      8 C          63.5144   86.4968   13.7417 C.ar    1  UNL1        0.1026
      9 C          64.0511   85.3747   14.5801 C.ar    1  UNL1        0.0224
     10 C          63.8969   83.9552   14.1207 C.ar    1  UNL1        0.0239
     11 C          63.2059   83.6577   12.8230 C.ar    1  UNL1        0.1189
     12 N          63.0516   82.2380   12.3637 N.ar    1  UNL1       -0.2826
     13 C          62.7157   81.0620   13.2320 C.ar    1  UNL1        0.1826
     14 N          62.6627   79.8424   12.3603 N.ar    1  UNL1       -0.2280
     15 C          62.9659   80.2647   10.9533 C.ar    1  UNL1        0.0786
     16 C          63.0193   79.3645    9.7546 C.3     1  UNL1        0.0538
     17 C          63.2063   81.7453   10.9554 C.ar    1  UNL1        0.0963
     18 C          61.8444   85.5536    9.6457 C.3     1  UNL1        0.2543
     19 O          61.9782   84.4822   10.6869 O.3     1  UNL1       -0.4551
     20 N          64.0435   91.7504   13.7265 N.pl3   1  UNL1       -0.2784
     21 H          63.3129   92.3908   13.8854 H       1  UNL1        0.1555
     22 C          65.2884   92.1939   13.0169 C.ar    1  UNL1        0.1316
     23 C          65.4266   92.4276   11.5416 C.ar    1  UNL1        0.0505
     24 C          66.8372   92.8597   11.2709 C.ar    1  UNL1        0.0807
     25 N          67.5709   92.8930   12.5788 N.ar    1  UNL1       -0.1727
     26 N          66.6137   92.4815   13.6579 N.ar    1  UNL1       -0.2399
     27 C          67.4131   93.1989    9.9280 C.3     1  UNL1        0.0372
     28 C          66.5321   94.4108    9.8564 C.3     1  UNL1        0.0060
     29 C          68.2940   91.9870    9.9997 C.3     1  UNL1        0.0060
     30 C          67.9890   93.5381    8.5851 C.3     1  UNL1        0.0060
     31 C          66.9268   92.3762   15.1210 C.3     1  UNL1        0.1066
     32 C          68.2880   91.9304   15.5665 C.3     1  UNL1        0.0264
     33 C          65.8787   92.7166   16.1387 C.3     1  UNL1        0.0264
@<TRIPOS>BOND
     1    18    19    1
     2    19     6    1
     3     6     7   ar
     4     7     8   ar
     5     8     1    1
     6     1     2   ar
     7     2     3   ar
     8     3     4   ar
     9     4    20    1
    10    20    22    1
    11    22    23   ar
    12    23    24   ar
    13    24    27    1
    14    27    28    1
    15    27    29    1
    16    27    30    1
    17    24    25   ar
    18    25    26   ar
    19    26    31    1
    20    31    32    1
    21    31    33    1
    22     4     5   ar
    23     8     9   ar
    24     9    10   ar
    25    10    11   ar
    26    11    12    1
    27    12    13   ar
    28    13    14   ar
    29    14    15   ar
    30    15    16    1
    31    15    17   ar
    32    11     6   ar
    33    17    12   ar
    34     5     1   ar
    35    26    22   ar
    36    20    21    1
@<TRIPOS>MOLECULE
*****
 33 36 0 0 0
SMALL
GASTEIGER

@<TRIPOS>ATOM
      1 C          59.6580   89.4142    6.9696 C.ar    1  UNL1        0.1074
      2 C          59.2940   87.9621    6.8746 C.ar    1  UNL1        0.0588
      3 S          59.3869   87.3701    8.2497 S.2     1  UNL1       -0.0508
      4 C          59.8083   88.4562    9.1946 C.ar    1  UNL1        0.1646
      5 N          59.9758   89.7195    8.4034 N.ar    1  UNL1       -0.2224
      6 C          61.0361   91.6641    4.0050 C.ar    1  UNL1        0.2416
      7 N          60.9968   90.6887    5.1438 N.ar    1  UNL1       -0.2089
      8 C          59.6973   90.3897    5.8308 C.ar    1  UNL1        0.1026
      9 C          58.4371   91.0662    5.3789 C.ar    1  UNL1        0.0224
     10 C          58.4764   92.0417    4.2402 C.ar    1  UNL1        0.0239
     11 C          59.7759   92.3406    3.5532 C.ar    1  UNL1        0.1189
     12 N          59.8151   93.3161    2.4143 N.ar    1  UNL1       -0.2826
     13 C          60.3959   94.6985    2.4571 C.ar    1  UNL1        0.1826
     14 N          60.2202   95.3172    1.1020 N.ar    1  UNL1       -0.2280
     15 C          59.5308   94.3172    0.2217 C.ar    1  UNL1        0.0786
     16 C          59.1574   94.5186   -1.2170 C.3     1  UNL1        0.0538
     17 C          59.2805   93.0805    1.0328 C.ar    1  UNL1        0.0963
     18 C          63.4135   90.9213    3.2660 C.3     1  UNL1        0.2543
     19 O          62.3356   91.9631    3.3180 O.3     1  UNL1       -0.4551
     20 N          60.0242   88.3055   10.6712 N.pl3   1  UNL1       -0.2784
     21 H          59.4114   88.7430   11.3055 H       1  UNL1        0.1555
     22 C          61.1739   87.4881   11.1816 C.ar    1  UNL1        0.1316
     23 C          61.2564   85.9904   11.1884 C.ar    1  UNL1        0.0505
     24 C          62.5762   85.6016   11.7857 C.ar    1  UNL1        0.0807
     25 N          63.3095   86.8591   12.1479 N.ar    1  UNL1       -0.1727
     26 N          62.4427   88.0250   11.7746 N.ar    1  UNL1       -0.2399
     27 C          63.0753   84.2013   11.9856 C.3     1  UNL1        0.0372
     28 C          62.8391   84.3279   13.4615 C.3     1  UNL1        0.0060
     29 C          63.3115   84.0748   10.5098 C.3     1  UNL1        0.0060
     30 C          63.5744   82.8009   12.1856 C.3     1  UNL1        0.0060
     31 C          62.7848   89.4735   11.9614 C.3     1  UNL1        0.1066
     32 C          63.1370   89.9911   13.3244 C.3     1  UNL1        0.0264
     33 C          62.7746   90.4043   10.7851 C.3     1  UNL1        0.0264
@<TRIPOS>BOND
     1    18    19    1
     2    19     6    1
     3     6     7   ar
     4     7     8   ar
     5     8     1    1
     6     1     2   ar
     7     2     3   ar
     8     3     4   ar
     9     4    20    1
    10    20    22    1
    11    22    23   ar
    12    23    24   ar
    13    24    27    1
    14    27    28    1
    15    27    29    1
    16    27    30    1
    17    24    25   ar
    18    25    26   ar
    19    26    31    1
    20    31    32    1
    21    31    33    1
    22     4     5   ar
    23     8     9   ar
    24     9    10   ar
    25    10    11   ar
    26    11    12    1
    27    12    13   ar
    28    13    14   ar
    29    14    15   ar
    30    15    16    1
    31    15    17   ar
    32    11     6   ar
    33    17    12   ar
    34     5     1   ar
    35    26    22   ar
    36    20    21    1
@<TRIPOS>MOLECULE
*****
 33 36 0 0 0
SMALL
GASTEIGER

@<TRIPOS>ATOM
      1 C          59.5837   89.2414    7.0343 C.ar    1  UNL1        0.1074
      2 C          59.2164   87.7942    6.8908 C.ar    1  UNL1        0.0588
      3 S          59.2882   87.1609    8.2487 S.2     1  UNL1       -0.0508
      4 C          59.6999   88.2168    9.2314 C.ar    1  UNL1        0.1646
      5 N          59.8826   89.5026    8.4808 N.ar    1  UNL1       -0.2224
      6 C          61.0099   91.5719    4.1559 C.ar    1  UNL1        0.2416
      7 N          60.9515   90.5630    5.2643 N.ar    1  UNL1       -0.2089
      8 C          59.6420   90.2503    5.9258 C.ar    1  UNL1        0.1026
      9 C          58.3909   90.9466    5.4788 C.ar    1  UNL1        0.0224
     10 C          58.4493   91.9555    4.3703 C.ar    1  UNL1        0.0239
     11 C          59.7587   92.2681    3.7089 C.ar    1  UNL1        0.1189
     12 N          59.8170   93.2771    2.6004 N.ar    1  UNL1       -0.2826
     13 C          60.3480   94.6758    2.7083 C.ar    1  UNL1        0.1826
     14 N          60.2137   95.3276    1.3640 N.ar    1  UNL1       -0.2280
     15 C          59.5998   94.3317    0.4252 C.ar    1  UNL1        0.0786
     16 C          59.2861   94.5625   -1.0233 C.3     1  UNL1        0.0538
     17 C          59.3546   93.0644    1.1894 C.ar    1  UNL1        0.0963
     18 C          63.3512   90.8087    3.3279 C.3     1  UNL1        0.2543
     19 O          62.3194   91.8845    3.4945 O.3     1  UNL1       -0.4551
     20 N          59.8948   88.0212   10.7058 N.pl3   1  UNL1       -0.2784
     21 H          59.1524   87.6890   11.2606 H       1  UNL1        0.1555
     22 C          61.2207   88.3317   11.3348 C.ar    1  UNL1        0.1316
     23 C          61.6727   89.6771   11.8202 C.ar    1  UNL1        0.0505
     24 C          63.0587   89.5283   12.3742 C.ar    1  UNL1        0.0807
     25 N          63.4631   88.0909   12.2312 N.ar    1  UNL1       -0.1727
     26 N          62.3272   87.3514   11.5888 N.ar    1  UNL1       -0.2399
     27 C          63.8936   90.6243   12.9671 C.3     1  UNL1        0.0372
     28 C          63.8860   91.3424   11.6501 C.3     1  UNL1        0.0060
     29 C          63.9011   89.9062   14.2840 C.3     1  UNL1        0.0060
     30 C          64.7285   91.7205   13.5600 C.3     1  UNL1        0.0060
     31 C          62.3021   85.8885   11.2585 C.3     1  UNL1        0.1066
     32 C          62.2096   85.4439    9.8289 C.3     1  UNL1        0.0264
     33 C          62.3696   84.8701   12.3578 C.3     1  UNL1        0.0264
@<TRIPOS>BOND
     1    18    19    1
     2    19     6    1
     3     6     7   ar
     4     7     8   ar
     5     8     1    1
     6     1     2   ar
     7     2     3   ar
     8     3     4   ar
     9     4    20    1
    10    20    22    1
    11    22    23   ar
    12    23    24   ar
    13    24    27    1
    14    27    28    1
    15    27    29    1
    16    27    30    1
    17    24    25   ar
    18    25    26   ar
    19    26    31    1
    20    31    32    1
    21    31    33    1
    22     4     5   ar
    23     8     9   ar
    24     9    10   ar
    25    10    11   ar
    26    11    12    1
    27    12    13   ar
    28    13    14   ar
    29    14    15   ar
    30    15    16    1
    31    15    17   ar
    32    11     6   ar
    33    17    12   ar
    34     5     1   ar
    35    26    22   ar
    36    20    21    1
@<TRIPOS>MOLECULE
*****
 33 36 0 0 0
SMALL
GASTEIGER

@<TRIPOS>ATOM
      1 C          60.0366   91.3060    4.6195 C.ar    1  UNL1        0.1074
      2 C          58.5704   91.5365    4.8371 C.ar    1  UNL1        0.0588
      3 S          58.1127   90.6128    5.9267 S.2     1  UNL1       -0.0508
      4 C          59.2959   89.8113    6.3825 C.ar    1  UNL1        0.1646
      5 N          60.4849   90.2398    5.5746 N.ar    1  UNL1       -0.2224
      6 C          61.2023   93.8496    1.8051 C.ar    1  UNL1        0.2416
      7 N          60.3366   93.1388    2.8026 N.ar    1  UNL1       -0.2089
      8 C          60.9024   92.0169    3.6220 C.ar    1  UNL1        0.1026
      9 C          62.3339   91.6059    3.4438 C.ar    1  UNL1        0.0224
     10 C          63.1996   92.3168    2.4463 C.ar    1  UNL1        0.0239
     11 C          62.6339   93.4387    1.6269 C.ar    1  UNL1        0.1189
     12 N          63.4997   94.1496    0.6294 N.ar    1  UNL1       -0.2826
     13 C          63.5935   93.8404   -0.8354 C.ar    1  UNL1        0.1826
     14 N          64.5755   94.7942   -1.4486 N.ar    1  UNL1       -0.2280
     15 C          65.0886   95.6929   -0.3627 C.ar    1  UNL1        0.0786
     16 C          66.0907   96.7962   -0.5315 C.3     1  UNL1        0.0538
     17 C          64.4237   95.2945    0.9215 C.ar    1  UNL1        0.0963
     18 C          59.3446   94.7834    0.2472 C.3     1  UNL1        0.2543
     19 O          60.6366   94.9715    0.9858 O.3     1  UNL1       -0.4551
     20 N          59.2910   88.7652    7.4574 N.pl3   1  UNL1       -0.2784
     21 H          58.5436   88.1274    7.5202 H       1  UNL1        0.1555
     22 C          60.4247   88.6907    8.4368 C.ar    1  UNL1        0.1316
     23 C          60.9026   89.8061    9.3187 C.ar    1  UNL1        0.0505
     24 C          62.0528   89.2926   10.1331 C.ar    1  UNL1        0.0807
     25 N          62.2858   87.8599    9.7545 N.ar    1  UNL1       -0.1727
     26 N          61.2796   87.4880    8.7061 N.ar    1  UNL1       -0.2399
     27 C          62.8331   90.0744   11.1479 C.3     1  UNL1        0.0372
     28 C          62.8338   88.8858   12.0630 C.3     1  UNL1        0.0060
     29 C          62.8323   91.2629   10.2329 C.3     1  UNL1        0.0060
     30 C          63.6134   90.8562   12.1628 C.3     1  UNL1        0.0060
     31 C          61.1508   86.1485    8.0435 C.3     1  UNL1        0.1066
     32 C          59.8162   85.6874    7.5374 C.3     1  UNL1        0.0264
     33 C          62.3566   85.2702    7.8869 C.3     1  UNL1        0.0264
@<TRIPOS>BOND
     1    18    19    1
     2    19     6    1
     3     6     7   ar
     4     7     8   ar
     5     8     1    1
     6     1     2   ar
     7     2     3   ar
     8     3     4   ar
     9     4    20    1
    10    20    22    1
    11    22    23   ar
    12    23    24   ar
    13    24    27    1
    14    27    28    1
    15    27    29    1
    16    27    30    1
    17    24    25   ar
    18    25    26   ar
    19    26    31    1
    20    31    32    1
    21    31    33    1
    22     4     5   ar
    23     8     9   ar
    24     9    10   ar
    25    10    11   ar
    26    11    12    1
    27    12    13   ar
    28    13    14   ar
    29    14    15   ar
    30    15    16    1
    31    15    17   ar
    32    11     6   ar
    33    17    12   ar
    34     5     1   ar
    35    26    22   ar
    36    20    21    1
@<TRIPOS>MOLECULE
*****
 33 36 0 0 0
SMALL
GASTEIGER

@<TRIPOS>ATOM
      1 C          59.8019   90.8281    5.1306 C.ar    1  UNL1        0.1074
      2 C          58.3139   90.9940    5.2221 C.ar    1  UNL1        0.0588
      3 S          57.8178   90.1211    6.3365 S.2     1  UNL1       -0.0508
      4 C          58.9992   89.4157    6.9338 C.ar    1  UNL1        0.1646
      5 N          60.2254   89.8526    6.1885 N.ar    1  UNL1       -0.2224
      6 C          61.1259   93.4058    2.4191 C.ar    1  UNL1        0.2416
      7 N          60.2205   92.7171    3.3967 N.ar    1  UNL1       -0.2089
      8 C          60.7074   91.5167    4.1529 C.ar    1  UNL1        0.1026
      9 C          62.0999   91.0049    3.9314 C.ar    1  UNL1        0.0224
     10 C          63.0054   91.6935    2.9538 C.ar    1  UNL1        0.0239
     11 C          62.5184   92.8940    2.1976 C.ar    1  UNL1        0.1189
     12 N          63.4239   93.5826    1.2199 N.ar    1  UNL1       -0.2826
     13 C          64.7583   94.1922    1.5324 C.ar    1  UNL1        0.1826
     14 N          65.3131   94.7689    0.2637 N.ar    1  UNL1       -0.2280
     15 C          64.3216   94.5156   -0.8330 C.ar    1  UNL1        0.0786
     16 C          64.4713   94.9239   -2.2686 C.3     1  UNL1        0.0538
     17 C          63.1540   93.7825   -0.2420 C.ar    1  UNL1        0.0963
     18 C          59.5961   94.4485    0.5964 C.3     1  UNL1        0.2543
     19 O          60.6390   94.6062    1.6629 O.3     1  UNL1       -0.4551
     20 N          58.9610   88.4439    8.0758 N.pl3   1  UNL1       -0.2784
     21 H          58.0988   88.1908    8.4781 H       1  UNL1        0.1555
     22 C          60.2364   87.8579    8.6049 C.ar    1  UNL1        0.1316
     23 C          60.7394   86.4675    8.3520 C.ar    1  UNL1        0.0505
     24 C          62.0466   86.3097    9.0706 C.ar    1  UNL1        0.0807
     25 N          62.3514   87.6024    9.7676 N.ar    1  UNL1       -0.1727
     26 N          61.2327   88.5593    9.4798 N.ar    1  UNL1       -0.2399
     27 C          62.8992   85.0757    9.0889 C.3     1  UNL1        0.0372
     28 C          62.9201   85.0679    7.5890 C.3     1  UNL1        0.0060
     29 C          62.8783   85.0836   10.5887 C.3     1  UNL1        0.0060
     30 C          63.7519   83.8417    9.1072 C.3     1  UNL1        0.0060
     31 C          61.1285   89.9699    9.9792 C.3     1  UNL1        0.1066
     32 C          62.3123   90.8867    9.8892 C.3     1  UNL1        0.0264
     33 C          59.8405   90.4636   10.5685 C.3     1  UNL1        0.0264
@<TRIPOS>BOND
     1    18    19    1
     2    19     6    1
     3     6     7   ar
     4     7     8   ar
     5     8     1    1
     6     1     2   ar
     7     2     3   ar
     8     3     4   ar
     9     4    20    1
    10    20    22    1
    11    22    23   ar
    12    23    24   ar
    13    24    27    1
    14    27    28    1
    15    27    29    1
    16    27    30    1
    17    24    25   ar
    18    25    26   ar
    19    26    31    1
    20    31    32    1
    21    31    33    1
    22     4     5   ar
    23     8     9   ar
    24     9    10   ar
    25    10    11   ar
    26    11    12    1
    27    12    13   ar
    28    13    14   ar
    29    14    15   ar
    30    15    16    1
    31    15    17   ar
    32    11     6   ar
    33    17    12   ar
    34     5     1   ar
    35    26    22   ar
    36    20    21    1
@<TRIPOS>MOLECULE
*****
 33 36 0 0 0
SMALL
GASTEIGER

@<TRIPOS>ATOM
      1 C          59.7550   89.1778    7.1438 C.ar    1  UNL1        0.1074
      2 C          58.8385   87.9956    7.2555 C.ar    1  UNL1        0.0588
      3 S          59.1794   87.2625    8.5190 S.2     1  UNL1       -0.0508
      4 C          60.3067   87.9916    9.1882 C.ar    1  UNL1        0.1646
      5 N          60.6624   89.1753    8.3383 N.ar    1  UNL1       -0.2224
      6 C          61.0551   91.5306    4.2242 C.ar    1  UNL1        0.2416
      7 N          61.0472   90.5229    5.3352 N.ar    1  UNL1       -0.2089
      8 C          59.7629   90.1856    6.0328 C.ar    1  UNL1        0.1026
      9 C          58.4863   90.8560    5.6193 C.ar    1  UNL1        0.0224
     10 C          58.4942   91.8637    4.5083 C.ar    1  UNL1        0.0239
     11 C          59.7786   92.2010    3.8107 C.ar    1  UNL1        0.1189
     12 N          59.7864   93.2088    2.6997 N.ar    1  UNL1       -0.2826
     13 C          60.3140   94.6104    2.7843 C.ar    1  UNL1        0.1826
     14 N          60.1216   95.2597    1.4459 N.ar    1  UNL1       -0.2280
     15 C          59.4751   94.2593    0.5340 C.ar    1  UNL1        0.0786
     16 C          59.1014   94.4866   -0.9008 C.3     1  UNL1        0.0538
     17 C          59.2679   92.9919    1.3089 C.ar    1  UNL1        0.0963
     18 C          63.3871   90.8122    3.3323 C.3     1  UNL1        0.2543
     19 O          62.3395   91.8679    3.5267 O.3     1  UNL1       -0.4551
     20 N          60.9630   87.6048   10.4803 N.pl3   1  UNL1       -0.2784
     21 H          61.0080   86.6578   10.7454 H       1  UNL1        0.1555
     22 C          61.5507   88.6611   11.3686 C.ar    1  UNL1        0.1316
     23 C          63.0082   88.8495   11.6691 C.ar    1  UNL1        0.0505
     24 C          63.1424   90.0191   12.5986 C.ar    1  UNL1        0.0807
     25 N          61.7679   90.5536   12.8724 N.ar    1  UNL1       -0.1727
     26 N          60.7842   89.7143   12.1123 N.ar    1  UNL1       -0.2399
     27 C          64.4258   90.5594   13.1562 C.3     1  UNL1        0.0372
     28 C          64.4222   89.4862   14.2042 C.3     1  UNL1        0.0060
     29 C          64.4293   91.6326   12.1082 C.3     1  UNL1        0.0060
     30 C          65.7092   91.0997   13.7139 C.3     1  UNL1        0.0060
     31 C          59.2953   89.8962   12.0983 C.3     1  UNL1        0.1066
     32 C          58.6961   91.1284   11.4880 C.3     1  UNL1        0.0264
     33 C          58.4057   88.8459   12.6945 C.3     1  UNL1        0.0264
@<TRIPOS>BOND
     1    18    19    1
     2    19     6    1
     3     6     7   ar
     4     7     8   ar
     5     8     1    1
     6     1     2   ar
     7     2     3   ar
     8     3     4   ar
     9     4    20    1
    10    20    22    1
    11    22    23   ar
    12    23    24   ar
    13    24    27    1
    14    27    28    1
    15    27    29    1
    16    27    30    1
    17    24    25   ar
    18    25    26   ar
    19    26    31    1
    20    31    32    1
    21    31    33    1
    22     4     5   ar
    23     8     9   ar
    24     9    10   ar
    25    10    11   ar
    26    11    12    1
    27    12    13   ar
    28    13    14   ar
    29    14    15   ar
    30    15    16    1
    31    15    17   ar
    32    11     6   ar
    33    17    12   ar
    34     5     1   ar
    35    26    22   ar
    36    20    21    1
