@<TRIPOS>MOLECULE
*****
 47 51 0 0 0
SMALL
GASTEIGER

@<TRIPOS>ATOM
      1 C          60.7471   86.8709    9.3029 C.3     1  UNL1        0.0964
      2 C          59.9031   86.0434    8.3793 C.3     1  UNL1        0.0780
      3 N          58.9311   86.7104    7.4518 N.3     1  UNL1       -0.2970
      4 C          58.8031   88.2049    7.4479 C.3     1  UNL1        0.0689
      5 C          59.6471   89.0324    8.3715 C.3     1  UNL1        0.0220
      6 C          60.6191   88.3654    9.2990 C.3     1  UNL1        0.0337
      7 H          58.0084   86.3364    7.6736 H       1  UNL1        0.1233
      8 C          61.4631   89.1929   10.2225 C.ar    1  UNL1       -0.0217
      9 C          62.7295   89.8207    9.7207 C.ar    1  UNL1       -0.0012
     10 C          63.5735   90.6482   10.6443 C.ar    1  UNL1        0.0366
     11 C          63.1510   90.8478   12.0696 C.ar    1  UNL1        0.1387
     12 C          61.8846   90.2200   12.5714 C.ar    1  UNL1        0.0366
     13 C          61.0406   89.3925   11.6478 C.ar    1  UNL1       -0.0012
     14 O          63.9950   91.6753   12.9932 O.3     1  UNL1       -0.4714
     15 C          65.3990   92.0346   12.6063 C.3     1  UNL1        0.2525
     16 C          65.8822   93.4460   12.7629 C.3     1  UNL1        0.2525
     17 O          67.0949   93.9111   12.0124 O.3     1  UNL1       -0.4697
     18 C          66.9374   94.6473   10.7150 C.ar    1  UNL1        0.1596
     19 C          67.2920   93.9737    9.4226 C.ar    1  UNL1        0.0921
     20 CL         67.8042   92.5639    9.4275 Cl      1  UNL1       -0.0791
     21 C          67.1345   94.7100    8.1252 C.ar    1  UNL1        0.0103
     22 C          66.6223   96.1198    8.1203 C.ar    1  UNL1       -0.0200
     23 C          66.4648   96.8560    6.8229 C.3     1  UNL1        0.0311
     24 C          66.2677   96.7934    9.4128 C.ar    1  UNL1        0.0103
     25 C          66.4252   96.0572   10.7102 C.ar    1  UNL1        0.0921
     26 CL         66.0706   96.7308   12.0026 Cl      1  UNL1       -0.0791
     27 N          62.7312   85.2384    9.6884 N.am    1  UNL1       -0.2770
     28 C          61.7191   86.2038   10.2304 C.2     1  UNL1        0.2270
     29 O          61.6791   86.5022   11.6999 O.2     1  UNL1       -0.2748
     30 C          62.7712   84.9400    8.2189 C.3     1  UNL1        0.0758
     31 C          63.5297   84.8772    6.9264 C.3     1  UNL1        0.0215
     32 C          62.0821   84.4861    6.9664 C.3     1  UNL1        0.0215
     33 C          63.7032   84.5713   10.6159 C.3     1  UNL1        0.1209
     34 C          62.4925   83.5206   14.2463 C.ar    1  UNL1       -0.0219
     35 C          62.1932   82.0659   14.0354 C.ar    1  UNL1       -0.0034
     36 C          62.3972   81.4465   12.6846 C.ar    1  UNL1        0.0108
     37 C          62.9006   82.2816   11.5448 C.ar    1  UNL1        0.0553
     38 CL         63.1046   81.6622   10.1940 Cl      1  UNL1       -0.0825
     39 C          63.1999   83.7362   11.7557 C.ar    1  UNL1        0.0079
     40 C          62.9959   84.3557   13.1065 C.ar    1  UNL1       -0.0060
     41 C          62.2885   84.1401   15.5971 C.3     1  UNL1        0.0359
     42 C          63.3758   84.9693   16.2139 C.3     1  UNL1        0.0897
     43 C          63.0775   88.8922   16.7356 C.3     1  UNL1        0.1107
     44 N          63.4054   87.5654   16.1174 N.am    1  UNL1       -0.3026
     45 C          63.0479   86.2961   16.8321 C.2     1  UNL1        0.2229
     46 O          62.3625   86.3534   18.1652 O.2     1  UNL1       -0.2751
     47 H          63.8552   87.5277   15.2425 H       1  UNL1        0.1495
@<TRIPOS>BOND
     1    43    44    1
     2    44    45   am
     3    45    46    2
     4    45    42    1
     5    42    41    1
     6    41    34    1
     7    34    35   ar
     8    35    36   ar
     9    36    37   ar
    10    37    38    1
    11    37    39   ar
    12    39    33    1
    13    33    27    1
    14    27    28   am
    15    28    29    2
    16     1    28    1
    17     1     2    1
    18     2     3    1
    19     3     4    1
    20     4     5    1
    21     5     6    1
    22     6     8    1
    23     8     9   ar
    24     9    10   ar
    25    10    11   ar
    26    11    14    1
    27    14    15    1
    28    15    16    1
    29    16    17    1
    30    17    18    1
    31    18    19   ar
    32    19    20    1
    33    19    21   ar
    34    21    22   ar
    35    22    23    1
    36    22    24   ar
    37    24    25   ar
    38    25    26    1
    39    11    12   ar
    40    12    13   ar
    41    27    30    1
    42    30    31    1
    43    31    32    1
    44    39    40   ar
    45    40    34   ar
    46     6     1    1
    47    13     8   ar
    48    32    30    1
    49    25    18   ar
    50    44    47    1
    51     3     7    1
@<TRIPOS>MOLECULE
*****
 47 51 0 0 0
SMALL
GASTEIGER

@<TRIPOS>ATOM
      1 C          61.0650   88.6445    9.5290 C.3     1  UNL1        0.0964
      2 C          60.2774   89.8354    9.0690 C.3     1  UNL1        0.0780
      3 N          59.3850   89.7262    7.8683 N.3     1  UNL1       -0.2970
      4 C          59.2803   88.4261    7.1276 C.3     1  UNL1        0.0689
      5 C          60.0679   87.2352    7.5875 C.3     1  UNL1        0.0220
      6 C          60.9603   87.3445    8.7882 C.3     1  UNL1        0.0337
      7 H          59.7084   90.4225    7.1968 H       1  UNL1        0.1233
      8 C          61.7479   86.1536    9.2481 C.ar    1  UNL1       -0.0217
      9 C          62.7382   85.5075    8.3253 C.ar    1  UNL1       -0.0012
     10 C          63.5258   84.3166    8.7852 C.ar    1  UNL1        0.0366
     11 C          63.3231   83.7719   10.1680 C.ar    1  UNL1        0.1387
     12 C          62.3328   84.4180   11.0908 C.ar    1  UNL1        0.0366
     13 C          61.5451   85.6089   10.6309 C.ar    1  UNL1       -0.0012
     14 O          64.1107   82.5811   10.6279 O.3     1  UNL1       -0.4714
     15 C          63.5061   81.6119   11.6000 C.3     1  UNL1        0.2525
     16 C          63.7914   81.7442   13.0667 C.3     1  UNL1        0.2525
     17 O          64.6284   82.8836   13.5681 O.3     1  UNL1       -0.4697
     18 C          64.0631   83.8446   14.5715 C.ar    1  UNL1        0.1596
     19 C          62.6815   83.6340   15.1160 C.ar    1  UNL1        0.0921
     20 CL         61.8651   82.4624   14.6571 Cl      1  UNL1       -0.0791
     21 C          62.1162   84.5951   16.1194 C.ar    1  UNL1        0.0103
     22 C          62.9326   85.7667   16.5783 C.ar    1  UNL1       -0.0200
     23 C          62.3673   86.7278   17.5817 C.3     1  UNL1        0.0311
     24 C          64.3144   85.9774   16.0338 C.ar    1  UNL1        0.0103
     25 C          64.8796   85.0163   15.0304 C.ar    1  UNL1        0.0921
     26 CL         66.2613   85.2269   14.4859 Cl      1  UNL1       -0.0791
     27 N          61.4173   89.2992   12.0184 N.am    1  UNL1       -0.2770
     28 C          61.9574   88.7538   10.7297 C.2     1  UNL1        0.2270
     29 O          63.3899   88.3176   10.6417 O.2     1  UNL1       -0.2748
     30 C          59.9848   89.7354   12.1064 C.3     1  UNL1        0.0758
     31 C          58.9204   90.7596   11.8456 C.3     1  UNL1        0.0215
     32 C          58.5681   89.4667   12.5197 C.3     1  UNL1        0.0215
     33 C          62.3096   89.4085   13.2192 C.3     1  UNL1        0.1209
     34 C          64.9131   92.1375   11.9845 C.ar    1  UNL1       -0.0219
     35 C          65.7023   92.3647   13.2397 C.ar    1  UNL1       -0.0034
     36 C          65.3606   91.6066   14.4881 C.ar    1  UNL1        0.0108
     37 C          64.2297   90.6211   14.4812 C.ar    1  UNL1        0.0553
     38 CL         63.8880   89.8629   15.7296 Cl      1  UNL1       -0.0825
     39 C          63.4405   90.3939   13.2260 C.ar    1  UNL1        0.0079
     40 C          63.7822   91.1521   11.9776 C.ar    1  UNL1       -0.0060
     41 C          65.2548   92.8956   10.7361 C.3     1  UNL1        0.0359
     42 C          66.5867   92.6931   10.0765 C.3     1  UNL1        0.0897
     43 C          67.3133   96.1564    8.2799 C.3     1  UNL1        0.1107
     44 N          66.5723   94.9831    8.8494 N.am    1  UNL1       -0.3026
     45 C          67.3277   93.8664    9.5069 C.2     1  UNL1        0.2229
     46 O          68.8241   93.9229    9.5949 O.2     1  UNL1       -0.2751
     47 H          65.5902   94.9460    8.7917 H       1  UNL1        0.1495
@<TRIPOS>BOND
     1    43    44    1
     2    44    45   am
     3    45    46    2
     4    45    42    1
     5    42    41    1
     6    41    34    1
     7    34    35   ar
     8    35    36   ar
     9    36    37   ar
    10    37    38    1
    11    37    39   ar
    12    39    33    1
    13    33    27    1
    14    27    28   am
    15    28    29    2
    16     1    28    1
    17     1     2    1
    18     2     3    1
    19     3     4    1
    20     4     5    1
    21     5     6    1
    22     6     8    1
    23     8     9   ar
    24     9    10   ar
    25    10    11   ar
    26    11    14    1
    27    14    15    1
    28    15    16    1
    29    16    17    1
    30    17    18    1
    31    18    19   ar
    32    19    20    1
    33    19    21   ar
    34    21    22   ar
    35    22    23    1
    36    22    24   ar
    37    24    25   ar
    38    25    26    1
    39    11    12   ar
    40    12    13   ar
    41    27    30    1
    42    30    31    1
    43    31    32    1
    44    39    40   ar
    45    40    34   ar
    46     6     1    1
    47    13     8   ar
    48    32    30    1
    49    25    18   ar
    50    44    47    1
    51     3     7    1
@<TRIPOS>MOLECULE
*****
 47 51 0 0 0
SMALL
GASTEIGER

@<TRIPOS>ATOM
      1 C          60.7933   86.8464    9.2002 C.3     1  UNL1        0.0964
      2 C          60.0592   86.0406    8.1697 C.3     1  UNL1        0.0780
      3 N          59.0879   86.7122    7.2447 N.3     1  UNL1       -0.2970
      4 C          58.8507   88.1895    7.3503 C.3     1  UNL1        0.0689
      5 C          59.5848   88.9953    8.3808 C.3     1  UNL1        0.0220
      6 C          60.5561   88.3237    9.3057 C.3     1  UNL1        0.0337
      7 H          58.1854   86.2583    7.3854 H       1  UNL1        0.1233
      8 C          61.2902   89.1294   10.3362 C.ar    1  UNL1       -0.0217
      9 C          62.6357   89.7098   10.0157 C.ar    1  UNL1       -0.0012
     10 C          63.3697   90.5155   11.0462 C.ar    1  UNL1        0.0366
     11 C          62.7583   90.7409   12.3972 C.ar    1  UNL1        0.1387
     12 C          61.4128   90.1606   12.7177 C.ar    1  UNL1        0.0366
     13 C          60.6787   89.3548   11.6872 C.ar    1  UNL1       -0.0012
     14 O          63.4924   91.5467   13.4277 O.3     1  UNL1       -0.4714
     15 C          64.9449   91.2814   13.6921 C.3     1  UNL1        0.2525
     16 C          65.8018   92.3471   14.3086 C.3     1  UNL1        0.2525
     17 O          66.3528   93.4523   13.4571 O.3     1  UNL1       -0.4697
     18 C          66.9925   93.1349   12.1380 C.ar    1  UNL1        0.1596
     19 C          68.0899   92.1152   12.0627 C.ar    1  UNL1        0.0921
     20 CL         68.5476   91.4127   13.3065 Cl      1  UNL1       -0.0791
     21 C          68.7297   91.7978   10.7436 C.ar    1  UNL1        0.0103
     22 C          68.2720   92.5002    9.4998 C.ar    1  UNL1       -0.0200
     23 C          68.9117   92.1829    8.1807 C.3     1  UNL1        0.0311
     24 C          67.1745   93.5201    9.5751 C.ar    1  UNL1        0.0103
     25 C          66.5348   93.8374   10.8942 C.ar    1  UNL1        0.0921
     26 CL         65.4374   94.8572   10.9695 Cl      1  UNL1       -0.0791
     27 N          62.7521   85.1835    9.5846 N.am    1  UNL1       -0.2770
     28 C          61.7646   86.1747   10.1251 C.2     1  UNL1        0.2270
     29 O          61.7483   86.4943   11.5906 O.2     1  UNL1       -0.2748
     30 C          62.7684   84.8638    8.1191 C.3     1  UNL1        0.0758
     31 C          63.4736   84.8732    6.7953 C.3     1  UNL1        0.0215
     32 C          62.0914   84.3008    6.9048 C.3     1  UNL1        0.0215
     33 C          63.7235   84.5118   10.5096 C.3     1  UNL1        0.1209
     34 C          62.5136   83.5260   14.1584 C.ar    1  UNL1       -0.0219
     35 C          62.2110   82.0686   13.9727 C.ar    1  UNL1       -0.0034
     36 C          62.4125   81.4256   12.6325 C.ar    1  UNL1        0.0108
     37 C          62.9167   82.2401   11.4781 C.ar    1  UNL1        0.0553
     38 CL         63.1183   81.5971   10.1380 Cl      1  UNL1       -0.0825
     39 C          63.2193   83.6974   11.6639 C.ar    1  UNL1        0.0079
     40 C          63.0177   84.3404   13.0041 C.ar    1  UNL1       -0.0060
     41 C          62.3120   84.1690   15.4986 C.3     1  UNL1        0.0359
     42 C          63.3672   85.0736   16.0627 C.3     1  UNL1        0.0897
     43 C          63.0604   88.9533   16.8398 C.3     1  UNL1        0.1107
     44 N          63.4525   87.6679   16.1734 N.am    1  UNL1       -0.3026
     45 C          62.9751   86.3590   16.7291 C.2     1  UNL1        0.2229
     46 O          62.1056   86.3354   17.9512 O.2     1  UNL1       -0.2751
     47 H          64.0232   87.6834   15.3713 H       1  UNL1        0.1495
@<TRIPOS>BOND
     1    43    44    1
     2    44    45   am
     3    45    46    2
     4    45    42    1
     5    42    41    1
     6    41    34    1
     7    34    35   ar
     8    35    36   ar
     9    36    37   ar
    10    37    38    1
    11    37    39   ar
    12    39    33    1
    13    33    27    1
    14    27    28   am
    15    28    29    2
    16     1    28    1
    17     1     2    1
    18     2     3    1
    19     3     4    1
    20     4     5    1
    21     5     6    1
    22     6     8    1
    23     8     9   ar
    24     9    10   ar
    25    10    11   ar
    26    11    14    1
    27    14    15    1
    28    15    16    1
    29    16    17    1
    30    17    18    1
    31    18    19   ar
    32    19    20    1
    33    19    21   ar
    34    21    22   ar
    35    22    23    1
    36    22    24   ar
    37    24    25   ar
    38    25    26    1
    39    11    12   ar
    40    12    13   ar
    41    27    30    1
    42    30    31    1
    43    31    32    1
    44    39    40   ar
    45    40    34   ar
    46     6     1    1
    47    13     8   ar
    48    32    30    1
    49    25    18   ar
    50    44    47    1
    51     3     7    1
@<TRIPOS>MOLECULE
*****
 47 51 0 0 0
SMALL
GASTEIGER

@<TRIPOS>ATOM
      1 C          61.2531   88.6535   10.5428 C.3     1  UNL1        0.0964
      2 C          60.5295   89.9535   10.3523 C.3     1  UNL1        0.0780
      3 N          59.7268   90.1897    9.1074 N.3     1  UNL1       -0.2970
      4 C          59.6476   89.1258    8.0530 C.3     1  UNL1        0.0689
      5 C          60.3712   87.8257    8.2435 C.3     1  UNL1        0.0220
      6 C          61.1739   87.5896    9.4884 C.3     1  UNL1        0.0337
      7 H          60.1152   91.0197    8.6596 H       1  UNL1        0.1233
      8 C          61.8975   86.2895    9.6789 C.ar    1  UNL1       -0.0217
      9 C          61.7226   85.5131   10.9503 C.ar    1  UNL1       -0.0012
     10 C          62.4462   84.2130   11.1408 C.ar    1  UNL1        0.0366
     11 C          63.3447   83.6894   10.0598 C.ar    1  UNL1        0.1387
     12 C          63.5196   84.4658    8.7884 C.ar    1  UNL1        0.0366
     13 C          62.7960   85.7659    8.5979 C.ar    1  UNL1       -0.0012
     14 O          64.0683   82.3893   10.2503 O.3     1  UNL1       -0.4714
     15 C          63.4778   81.3235   11.1251 C.3     1  UNL1        0.2525
     16 C          63.7264   81.3443   12.6042 C.3     1  UNL1        0.2525
     17 O          64.5814   82.4198   13.2060 O.3     1  UNL1       -0.4697
     18 C          64.0027   83.3553   14.2257 C.ar    1  UNL1        0.1596
     19 C          62.6290   83.1088   14.7755 C.ar    1  UNL1        0.0921
     20 CL         61.8341   81.9268   14.3055 Cl      1  UNL1       -0.0791
     21 C          62.0503   84.0444   15.7952 C.ar    1  UNL1        0.0103
     22 C          62.8452   85.2264   16.2652 C.ar    1  UNL1       -0.0200
     23 C          62.2664   86.1619   17.2849 C.3     1  UNL1        0.0311
     24 C          64.2189   85.4729   15.7154 C.ar    1  UNL1        0.0103
     25 C          64.7977   84.5374   14.6957 C.ar    1  UNL1        0.0921
     26 CL         66.1713   84.7839   14.1460 Cl      1  UNL1       -0.0791
     27 N          63.1782   89.3465   12.1440 N.am    1  UNL1       -0.2770
     28 C          62.0559   88.4173   11.7877 C.2     1  UNL1        0.2270
     29 O          61.7363   87.2520   12.6764 O.2     1  UNL1       -0.2748
     30 C          63.4978   90.5119   11.2553 C.3     1  UNL1        0.0758
     31 C          63.2988   91.2577    9.9691 C.3     1  UNL1        0.0215
     32 C          64.2503   91.7845   11.0022 C.3     1  UNL1        0.0215
     33 C          63.9809   89.1104   13.3889 C.3     1  UNL1        0.1209
     34 C          65.7980   92.4408   14.5536 C.ar    1  UNL1       -0.0219
     35 C          65.2503   92.5920   15.9418 C.ar    1  UNL1       -0.0034
     36 C          64.2794   91.5826   16.4791 C.ar    1  UNL1        0.0108
     37 C          63.8563   90.4221   15.6280 C.ar    1  UNL1        0.0553
     38 CL         62.8855   89.4127   16.1653 Cl      1  UNL1       -0.0825
     39 C          64.4041   90.2709   14.2399 C.ar    1  UNL1        0.0079
     40 C          65.3749   91.2803   13.7026 C.ar    1  UNL1       -0.0060
     41 C          66.7689   93.4502   14.0163 C.3     1  UNL1        0.0359
     42 C          66.4201   94.2512   12.7970 C.3     1  UNL1        0.0897
     43 C          67.7306   94.6288    9.0701 C.3     1  UNL1        0.1107
     44 N          67.0952   94.9554   10.3890 N.am    1  UNL1       -0.3026
     45 C          67.0555   93.9247   11.4780 C.2     1  UNL1        0.2229
     46 O          67.6513   92.5673   11.2482 O.2     1  UNL1       -0.2751
     47 H          66.7042   95.8462   10.5399 H       1  UNL1        0.1495
@<TRIPOS>BOND
     1    43    44    1
     2    44    45   am
     3    45    46    2
     4    45    42    1
     5    42    41    1
     6    41    34    1
     7    34    35   ar
     8    35    36   ar
     9    36    37   ar
    10    37    38    1
    11    37    39   ar
    12    39    33    1
    13    33    27    1
    14    27    28   am
    15    28    29    2
    16     1    28    1
    17     1     2    1
    18     2     3    1
    19     3     4    1
    20     4     5    1
    21     5     6    1
    22     6     8    1
    23     8     9   ar
    24     9    10   ar
    25    10    11   ar
    26    11    14    1
    27    14    15    1
    28    15    16    1
    29    16    17    1
    30    17    18    1
    31    18    19   ar
    32    19    20    1
    33    19    21   ar
    34    21    22   ar
    35    22    23    1
    36    22    24   ar
    37    24    25   ar
    38    25    26    1
    39    11    12   ar
    40    12    13   ar
    41    27    30    1
    42    30    31    1
    43    31    32    1
    44    39    40   ar
    45    40    34   ar
    46     6     1    1
    47    13     8   ar
    48    32    30    1
    49    25    18   ar
    50    44    47    1
    51     3     7    1
@<TRIPOS>MOLECULE
*****
 47 51 0 0 0
SMALL
GASTEIGER

@<TRIPOS>ATOM
      1 C          65.2792   92.2459   13.5164 C.3     1  UNL1        0.0964
      2 C          66.1009   93.4080   13.0428 C.3     1  UNL1        0.0780
      3 N          67.2385   93.9129   13.8800 N.3     1  UNL1       -0.2970
      4 C          67.5543   93.2557   15.1908 C.3     1  UNL1        0.0689
      5 C          66.7326   92.0936   15.6644 C.3     1  UNL1        0.0220
      6 C          65.5950   91.5887   14.8272 C.3     1  UNL1        0.0337
      7 H          67.0430   94.8935   14.0817 H       1  UNL1        0.1233
      8 C          64.7733   90.4266   15.3009 C.ar    1  UNL1       -0.0217
      9 C          64.9065   89.0913   14.6308 C.ar    1  UNL1       -0.0012
     10 C          64.0848   87.9292   15.1044 C.ar    1  UNL1        0.0366
     11 C          63.1299   88.1024   16.2481 C.ar    1  UNL1        0.1387
     12 C          62.9968   89.4378   16.9182 C.ar    1  UNL1        0.0366
     13 C          63.8185   90.5999   16.4446 C.ar    1  UNL1       -0.0012
     14 O          62.3082   86.9403   16.7218 O.3     1  UNL1       -0.4714
     15 C          62.9034   85.5638   16.7522 C.3     1  UNL1        0.2525
     16 C          62.2316   84.4399   16.0204 C.3     1  UNL1        0.2525
     17 O          63.0024   83.1983   15.6824 O.3     1  UNL1       -0.4697
     18 C          63.2678   82.8473   14.2483 C.ar    1  UNL1        0.1596
     19 C          62.3974   81.8466   13.5477 C.ar    1  UNL1        0.0921
     20 CL         61.2617   81.1968   14.2811 Cl      1  UNL1       -0.0791
     21 C          62.6627   81.4956   12.1137 C.ar    1  UNL1        0.0103
     22 C          63.7984   82.1454   11.3803 C.ar    1  UNL1       -0.0200
     23 C          64.0637   81.7944    9.9463 C.3     1  UNL1        0.0311
     24 C          64.6689   83.1462   12.0809 C.ar    1  UNL1        0.0103
     25 C          64.4036   83.4971   13.5149 C.ar    1  UNL1        0.0921
     26 CL         65.2739   84.4978   14.2156 Cl      1  UNL1       -0.0791
     27 N          64.2241   91.8079   11.1829 N.am    1  UNL1       -0.2770
     28 C          64.1415   91.7410   12.6791 C.2     1  UNL1        0.2270
     29 O          62.9214   91.1692   13.3381 O.2     1  UNL1       -0.2748
     30 C          65.4442   92.3797   10.5239 C.3     1  UNL1        0.0758
     31 C          66.1289   93.5117    9.8171 C.3     1  UNL1        0.0215
     32 C          66.8729   92.2380   10.0893 C.3     1  UNL1        0.0215
     33 C          63.0865   91.3029   10.3457 C.3     1  UNL1        0.1209
     34 C          62.1415   87.5863   11.3672 C.ar    1  UNL1       -0.0219
     35 C          60.6909   87.7476   11.7135 C.ar    1  UNL1       -0.0034
     36 C          60.0389   89.0940   11.6038 C.ar    1  UNL1        0.0108
     37 C          60.8375   90.2792   11.1478 C.ar    1  UNL1        0.0553
     38 CL         60.1854   91.6256   11.0381 Cl      1  UNL1       -0.0825
     39 C          62.2880   90.1179   10.8016 C.ar    1  UNL1        0.0079
     40 C          62.9400   88.7714   10.9113 C.ar    1  UNL1       -0.0060
     41 C          62.7935   86.2399   11.4769 C.3     1  UNL1        0.0359
     42 C          62.4077   85.1405   10.5321 C.3     1  UNL1        0.0897
     43 C          60.2129   86.2825    7.4291 C.3     1  UNL1        0.1107
     44 N          60.6158   85.9551    8.8364 N.am    1  UNL1       -0.3026
     45 C          62.0048   85.4680    9.1248 C.2     1  UNL1        0.2229
     46 O          62.9911   85.3084    8.0060 O.2     1  UNL1       -0.2751
     47 H          59.9684   86.0598    9.5707 H       1  UNL1        0.1495
@<TRIPOS>BOND
     1    43    44    1
     2    44    45   am
     3    45    46    2
     4    45    42    1
     5    42    41    1
     6    41    34    1
     7    34    35   ar
     8    35    36   ar
     9    36    37   ar
    10    37    38    1
    11    37    39   ar
    12    39    33    1
    13    33    27    1
    14    27    28   am
    15    28    29    2
    16     1    28    1
    17     1     2    1
    18     2     3    1
    19     3     4    1
    20     4     5    1
    21     5     6    1
    22     6     8    1
    23     8     9   ar
    24     9    10   ar
    25    10    11   ar
    26    11    14    1
    27    14    15    1
    28    15    16    1
    29    16    17    1
    30    17    18    1
    31    18    19   ar
    32    19    20    1
    33    19    21   ar
    34    21    22   ar
    35    22    23    1
    36    22    24   ar
    37    24    25   ar
    38    25    26    1
    39    11    12   ar
    40    12    13   ar
    41    27    30    1
    42    30    31    1
    43    31    32    1
    44    39    40   ar
    45    40    34   ar
    46     6     1    1
    47    13     8   ar
    48    32    30    1
    49    25    18   ar
    50    44    47    1
    51     3     7    1
@<TRIPOS>MOLECULE
*****
 47 51 0 0 0
SMALL
GASTEIGER

@<TRIPOS>ATOM
      1 C          60.2040   87.7688    9.5201 C.3     1  UNL1        0.0964
      2 C          59.3558   87.0987    8.4801 C.3     1  UNL1        0.0780
      3 N          59.0847   87.7876    7.1756 N.3     1  UNL1       -0.2970
      4 C          59.6617   89.1467    6.9111 C.3     1  UNL1        0.0689
      5 C          60.5099   89.8168    7.9511 C.3     1  UNL1        0.0220
      6 C          60.7810   89.1279    9.2556 C.3     1  UNL1        0.0337
      7 H          58.0718   87.8770    7.0947 H       1  UNL1        0.1233
      8 C          61.6292   89.7980   10.2956 C.ar    1  UNL1       -0.0217
      9 C          62.8860   90.5109    9.8930 C.ar    1  UNL1       -0.0012
     10 C          63.7341   91.1810   10.9330 C.ar    1  UNL1        0.0366
     11 C          63.3255   91.1382   12.3756 C.ar    1  UNL1        0.1387
     12 C          62.0687   90.4252   12.7782 C.ar    1  UNL1        0.0366
     13 C          61.2206   89.7551   11.7382 C.ar    1  UNL1       -0.0012
     14 O          64.1737   91.8083   13.4156 O.3     1  UNL1       -0.4714
     15 C          65.6151   92.1081   13.1286 C.3     1  UNL1        0.2525
     16 C          66.0461   93.5165   12.8446 C.3     1  UNL1        0.2525
     17 O          67.2041   93.7759   11.9271 O.3     1  UNL1       -0.4697
     18 C          66.9965   94.5457   10.6565 C.ar    1  UNL1        0.1596
     19 C          67.3786   93.9370    9.3399 C.ar    1  UNL1        0.0921
     20 CL         67.9682   92.5586    9.2938 Cl      1  UNL1       -0.0791
     21 C          67.1710   94.7069    8.0693 C.ar    1  UNL1        0.0103
     22 C          66.5813   96.0853    8.1154 C.ar    1  UNL1       -0.0200
     23 C          66.3737   96.8551    6.8448 C.3     1  UNL1        0.0311
     24 C          66.1993   96.6940    9.4321 C.ar    1  UNL1        0.0103
     25 C          66.4068   95.9242   10.7026 C.ar    1  UNL1        0.0921
     26 CL         66.0248   96.5328   12.0193 Cl      1  UNL1       -0.0791
     27 N          61.5018   85.9887   10.8974 N.am    1  UNL1       -0.2770
     28 C          60.4751   87.0798   10.8247 C.2     1  UNL1        0.2270
     29 O          59.7195   87.4820   12.0565 O.2     1  UNL1       -0.2748
     30 C          62.2574   85.5865    9.6656 C.3     1  UNL1        0.0758
     31 C          63.1948   84.6481    8.9652 C.3     1  UNL1        0.0215
     32 C          62.6287   85.8283    8.2326 C.3     1  UNL1        0.0215
     33 C          61.7729   85.2997   12.2020 C.3     1  UNL1        0.1209
     34 C          64.4846   87.3794   14.2197 C.ar    1  UNL1       -0.0219
     35 C          65.4778   86.3049   14.5501 C.ar    1  UNL1       -0.0034
     36 C          65.2359   84.8953   14.0979 C.ar    1  UNL1        0.0108
     37 C          64.0009   84.5602   13.3151 C.ar    1  UNL1        0.0553
     38 CL         63.7590   83.1507   12.8629 Cl      1  UNL1       -0.0825
     39 C          63.0078   85.6348   12.9847 C.ar    1  UNL1        0.0079
     40 C          63.2497   87.0444   13.4370 C.ar    1  UNL1       -0.0060
     41 C          64.7265   88.7890   14.6719 C.3     1  UNL1        0.0359
     42 C          63.7045   89.4918   15.5156 C.3     1  UNL1        0.0897
     43 C          62.4142   86.7808   18.1109 C.3     1  UNL1        0.1107
     44 N          63.3316   87.5739   17.2281 N.am    1  UNL1       -0.3026
     45 C          62.7871   88.6987   16.3984 C.2     1  UNL1        0.2229
     46 O          61.3252   89.0303   16.4515 O.2     1  UNL1       -0.2751
     47 H          64.2911   87.3563   17.1933 H       1  UNL1        0.1495
@<TRIPOS>BOND
     1    43    44    1
     2    44    45   am
     3    45    46    2
     4    45    42    1
     5    42    41    1
     6    41    34    1
     7    34    35   ar
     8    35    36   ar
     9    36    37   ar
    10    37    38    1
    11    37    39   ar
    12    39    33    1
    13    33    27    1
    14    27    28   am
    15    28    29    2
    16     1    28    1
    17     1     2    1
    18     2     3    1
    19     3     4    1
    20     4     5    1
    21     5     6    1
    22     6     8    1
    23     8     9   ar
    24     9    10   ar
    25    10    11   ar
    26    11    14    1
    27    14    15    1
    28    15    16    1
    29    16    17    1
    30    17    18    1
    31    18    19   ar
    32    19    20    1
    33    19    21   ar
    34    21    22   ar
    35    22    23    1
    36    22    24   ar
    37    24    25   ar
    38    25    26    1
    39    11    12   ar
    40    12    13   ar
    41    27    30    1
    42    30    31    1
    43    31    32    1
    44    39    40   ar
    45    40    34   ar
    46     6     1    1
    47    13     8   ar
    48    32    30    1
    49    25    18   ar
    50    44    47    1
    51     3     7    1
@<TRIPOS>MOLECULE
*****
 47 51 0 0 0
SMALL
GASTEIGER

@<TRIPOS>ATOM
      1 C          59.9590   88.1124    9.4571 C.3     1  UNL1        0.0964
      2 C          59.0152   87.4591    8.4914 C.3     1  UNL1        0.0780
      3 N          58.7313   88.1045    7.1674 N.3     1  UNL1       -0.2970
      4 C          59.3911   89.4030    6.8092 C.3     1  UNL1        0.0689
      5 C          60.3348   90.0563    7.7749 C.3     1  UNL1        0.0220
      6 C          60.6188   89.4109    9.0989 C.3     1  UNL1        0.0337
      7 H          57.7247   88.2649    7.1279 H       1  UNL1        0.1233
      8 C          61.5625   90.0642   10.0646 C.ar    1  UNL1       -0.0217
      9 C          62.7086   90.8860    9.5537 C.ar    1  UNL1       -0.0012
     10 C          63.6523   91.5392   10.5194 C.ar    1  UNL1        0.0366
     11 C          63.4500   91.3706   11.9961 C.ar    1  UNL1        0.1387
     12 C          62.3039   90.5488   12.5070 C.ar    1  UNL1        0.0366
     13 C          61.3602   89.8956   11.5413 C.ar    1  UNL1       -0.0012
     14 O          64.3937   92.0238   12.9618 O.3     1  UNL1       -0.4714
     15 C          65.7903   91.4990   13.1169 C.3     1  UNL1        0.2525
     16 C          66.9624   92.3866   12.8194 C.3     1  UNL1        0.2525
     17 O          67.6105   92.3449   11.4673 O.3     1  UNL1       -0.4697
     18 C          67.4011   93.4722   10.5002 C.ar    1  UNL1        0.1596
     19 C          67.9379   93.3714    9.1032 C.ar    1  UNL1        0.0921
     20 CL         68.6841   92.1433    8.6733 Cl      1  UNL1       -0.0791
     21 C          67.7284   94.4988    8.1361 C.ar    1  UNL1        0.0103
     22 C          66.9822   95.7269    8.5660 C.ar    1  UNL1       -0.0200
     23 C          66.7728   96.8542    7.5988 C.3     1  UNL1        0.0311
     24 C          66.4454   95.8277    9.9630 C.ar    1  UNL1        0.0103
     25 C          66.6548   94.7004   10.9301 C.ar    1  UNL1        0.0921
     26 CL         66.1181   94.8012   12.3271 Cl      1  UNL1       -0.0791
     27 N          61.2865   86.3946   10.8843 N.am    1  UNL1       -0.2770
     28 C          60.2429   87.4670   10.7811 C.2     1  UNL1        0.2270
     29 O          59.4831   87.8940   12.0019 O.2     1  UNL1       -0.2748
     30 C          62.0463   85.9675    9.6635 C.3     1  UNL1        0.0758
     31 C          63.3416   85.8412    8.9177 C.3     1  UNL1        0.0215
     32 C          62.0669   85.3540    8.2948 C.3     1  UNL1        0.0215
     33 C          61.5705   85.7491   12.2083 C.3     1  UNL1        0.1209
     34 C          63.6609   82.4133   11.7062 C.ar    1  UNL1       -0.0219
     35 C          64.8578   82.6969   12.5647 C.ar    1  UNL1       -0.0034
     36 C          64.9589   83.9979   13.3044 C.ar    1  UNL1        0.0108
     37 C          63.8631   85.0153   13.1855 C.ar    1  UNL1        0.0553
     38 CL         63.9642   86.3164   13.9252 Cl      1  UNL1       -0.0825
     39 C          62.6662   84.7317   12.3271 C.ar    1  UNL1        0.0079
     40 C          62.5651   83.4307   11.5874 C.ar    1  UNL1       -0.0060
     41 C          63.5597   81.1123   10.9665 C.3     1  UNL1        0.0359
     42 C          62.8752   79.9390   11.6028 C.3     1  UNL1        0.0897
     43 C          60.2486   80.4695   14.5302 C.3     1  UNL1        0.1107
     44 N          60.8299   80.3424   13.1532 N.am    1  UNL1       -0.3026
     45 C          62.2939   80.0661   12.9797 C.2     1  UNL1        0.2229
     46 O          63.1768   79.9168   14.1832 O.2     1  UNL1       -0.2751
     47 H          60.2504   80.4404   12.3633 H       1  UNL1        0.1495
@<TRIPOS>BOND
     1    43    44    1
     2    44    45   am
     3    45    46    2
     4    45    42    1
     5    42    41    1
     6    41    34    1
     7    34    35   ar
     8    35    36   ar
     9    36    37   ar
    10    37    38    1
    11    37    39   ar
    12    39    33    1
    13    33    27    1
    14    27    28   am
    15    28    29    2
    16     1    28    1
    17     1     2    1
    18     2     3    1
    19     3     4    1
    20     4     5    1
    21     5     6    1
    22     6     8    1
    23     8     9   ar
    24     9    10   ar
    25    10    11   ar
    26    11    14    1
    27    14    15    1
    28    15    16    1
    29    16    17    1
    30    17    18    1
    31    18    19   ar
    32    19    20    1
    33    19    21   ar
    34    21    22   ar
    35    22    23    1
    36    22    24   ar
    37    24    25   ar
    38    25    26    1
    39    11    12   ar
    40    12    13   ar
    41    27    30    1
    42    30    31    1
    43    31    32    1
    44    39    40   ar
    45    40    34   ar
    46     6     1    1
    47    13     8   ar
    48    32    30    1
    49    25    18   ar
    50    44    47    1
    51     3     7    1
@<TRIPOS>MOLECULE
*****
 47 51 0 0 0
SMALL
GASTEIGER

@<TRIPOS>ATOM
      1 C          62.8831   84.2243   11.2783 C.3     1  UNL1        0.0964
      2 C          63.0342   83.3664   10.0571 C.3     1  UNL1        0.0780
      3 N          63.9175   82.1548   10.0963 N.3     1  UNL1       -0.2970
      4 C          64.6498   81.8010   11.3567 C.3     1  UNL1        0.0689
      5 C          64.4988   82.6589   12.5778 C.3     1  UNL1        0.0220
      6 C          63.6154   83.8705   12.5386 C.3     1  UNL1        0.0337
      7 H          64.6236   82.2816    9.3712 H       1  UNL1        0.1233
      8 C          63.4644   84.7284   13.7598 C.ar    1  UNL1       -0.0217
      9 C          64.3128   85.9543   13.9248 C.ar    1  UNL1       -0.0012
     10 C          64.1617   86.8121   15.1460 C.ar    1  UNL1        0.0366
     11 C          63.1623   86.4441   16.2021 C.ar    1  UNL1        0.1387
     12 C          62.3139   85.2182   16.0372 C.ar    1  UNL1        0.0366
     13 C          62.4649   84.3603   14.8160 C.ar    1  UNL1       -0.0012
     14 O          63.0112   87.3019   17.4233 O.3     1  UNL1       -0.4714
     15 C          63.1568   88.7910   17.3165 C.3     1  UNL1        0.2525
     16 C          62.7922   89.4907   16.0408 C.3     1  UNL1        0.2525
     17 O          63.1427   90.9369   15.8519 O.3     1  UNL1       -0.4697
     18 C          64.5651   91.3361   15.5923 C.ar    1  UNL1        0.1596
     19 C          65.2416   92.3285   16.4909 C.ar    1  UNL1        0.0921
     20 CL         64.4956   92.9217   17.6491 Cl      1  UNL1       -0.0791
     21 C          66.6640   92.7277   16.2312 C.ar    1  UNL1        0.0103
     22 C          67.4099   92.1345   15.0729 C.ar    1  UNL1       -0.0200
     23 C          68.8323   92.5337   14.8133 C.3     1  UNL1        0.0311
     24 C          66.7335   91.1420   14.1743 C.ar    1  UNL1        0.0103
     25 C          65.3111   90.7429   14.4339 C.ar    1  UNL1        0.0921
     26 CL         64.6346   89.7505   13.5353 Cl      1  UNL1       -0.0791
     27 N          61.7183   86.1169    9.9325 N.am    1  UNL1       -0.2770
     28 C          61.9997   85.4360   11.2391 C.2     1  UNL1        0.2270
     29 O          61.3978   85.9666   12.5064 O.2     1  UNL1       -0.2748
     30 C          62.3202   85.5863    8.6652 C.3     1  UNL1        0.0758
     31 C          62.1545   85.0208    7.2858 C.3     1  UNL1        0.0215
     32 C          63.5283   85.2326    7.8496 C.3     1  UNL1        0.0215
     33 C          60.8349   87.3286    9.8933 C.3     1  UNL1        0.1209
     34 C          63.0147   90.5555   10.6583 C.ar    1  UNL1       -0.0219
     35 C          62.2162   91.1817   11.7630 C.ar    1  UNL1       -0.0034
     36 C          60.9572   90.5236   12.2444 C.ar    1  UNL1        0.0108
     37 C          60.4968   89.2391   11.6211 C.ar    1  UNL1        0.0553
     38 CL         59.2378   88.5810   12.1025 Cl      1  UNL1       -0.0825
     39 C          61.2953   88.6130   10.5165 C.ar    1  UNL1        0.0079
     40 C          62.5543   89.2712   10.0351 C.ar    1  UNL1       -0.0060
     41 C          64.2737   91.2137   10.1769 C.3     1  UNL1        0.0359
     42 C          64.9277   92.2788   11.0064 C.3     1  UNL1        0.0897
     43 C          67.4623   94.6750    9.1134 C.3     1  UNL1        0.1107
     44 N          66.1799   94.0477    9.5736 N.am    1  UNL1       -0.3026
     45 C          66.2101   92.9061   10.5461 C.2     1  UNL1        0.2229
     46 O          67.5228   92.3917   11.0584 O.2     1  UNL1       -0.2751
     47 H          65.3184   94.3853    9.2374 H       1  UNL1        0.1495
@<TRIPOS>BOND
     1    43    44    1
     2    44    45   am
     3    45    46    2
     4    45    42    1
     5    42    41    1
     6    41    34    1
     7    34    35   ar
     8    35    36   ar
     9    36    37   ar
    10    37    38    1
    11    37    39   ar
    12    39    33    1
    13    33    27    1
    14    27    28   am
    15    28    29    2
    16     1    28    1
    17     1     2    1
    18     2     3    1
    19     3     4    1
    20     4     5    1
    21     5     6    1
    22     6     8    1
    23     8     9   ar
    24     9    10   ar
    25    10    11   ar
    26    11    14    1
    27    14    15    1
    28    15    16    1
    29    16    17    1
    30    17    18    1
    31    18    19   ar
    32    19    20    1
    33    19    21   ar
    34    21    22   ar
    35    22    23    1
    36    22    24   ar
    37    24    25   ar
    38    25    26    1
    39    11    12   ar
    40    12    13   ar
    41    27    30    1
    42    30    31    1
    43    31    32    1
    44    39    40   ar
    45    40    34   ar
    46     6     1    1
    47    13     8   ar
    48    32    30    1
    49    25    18   ar
    50    44    47    1
    51     3     7    1
@<TRIPOS>MOLECULE
*****
 47 51 0 0 0
SMALL
GASTEIGER

@<TRIPOS>ATOM
      1 C          60.4719   87.9964    9.5028 C.3     1  UNL1        0.0964
      2 C          59.5470   87.7448    8.3489 C.3     1  UNL1        0.0780
      3 N          59.4094   88.7684    7.2611 N.3     1  UNL1       -0.2970
      4 C          60.1966   90.0435    7.3271 C.3     1  UNL1        0.0689
      5 C          61.1214   90.2950    8.4810 C.3     1  UNL1        0.0220
      6 C          61.2590   89.2715    9.5688 C.3     1  UNL1        0.0337
      7 H          58.4246   89.0317    7.2274 H       1  UNL1        0.1233
      8 C          62.1839   89.5231   10.7227 C.ar    1  UNL1       -0.0217
      9 C          62.6586   90.9159   11.0135 C.ar    1  UNL1       -0.0012
     10 C          63.5834   91.1674   12.1674 C.ar    1  UNL1        0.0366
     11 C          64.0335   90.0262   13.0304 C.ar    1  UNL1        0.1387
     12 C          63.5588   88.6333   12.7396 C.ar    1  UNL1        0.0366
     13 C          62.6340   88.3818   11.5857 C.ar    1  UNL1       -0.0012
     14 O          64.9583   90.2777   14.1843 O.3     1  UNL1       -0.4714
     15 C          64.8985   91.5819   14.9229 C.3     1  UNL1        0.2525
     16 C          66.0150   92.5740   14.7847 C.3     1  UNL1        0.2525
     17 O          66.0291   93.5313   13.6300 O.3     1  UNL1       -0.4697
     18 C          66.7331   93.1619   12.3580 C.ar    1  UNL1        0.1596
     19 C          66.3586   93.8348   11.0708 C.ar    1  UNL1        0.0921
     20 CL         65.2801   94.8771   11.0556 Cl      1  UNL1       -0.0791
     21 C          67.0626   93.4653    9.7989 C.ar    1  UNL1        0.0103
     22 C          68.1411   92.4230    9.8141 C.ar    1  UNL1       -0.0200
     23 C          68.8451   92.0535    8.5422 C.3     1  UNL1        0.0311
     24 C          68.5157   91.7500   11.1013 C.ar    1  UNL1        0.0103
     25 C          67.8117   92.1195   12.3733 C.ar    1  UNL1        0.0921
     26 CL         68.1861   91.4466   13.6605 Cl      1  UNL1       -0.0791
     27 N          61.3766   85.7087   10.3383 N.am    1  UNL1       -0.2770
     28 C          60.6095   86.9728   10.5906 C.2     1  UNL1        0.2270
     29 O          59.9799   87.2133   11.9307 O.2     1  UNL1       -0.2748
     30 C          62.0061   85.4682    8.9982 C.3     1  UNL1        0.0758
     31 C          63.2296   85.3774    8.1353 C.3     1  UNL1        0.0215
     32 C          61.8729   85.1424    7.5401 C.3     1  UNL1        0.0215
     33 C          61.5142   84.6851   11.4262 C.3     1  UNL1        0.1209
     34 C          64.4915   85.0979   14.0174 C.ar    1  UNL1       -0.0219
     35 C          65.4759   84.1022   13.4792 C.ar    1  UNL1       -0.0034
     36 C          65.1397   83.3008   12.2566 C.ar    1  UNL1        0.0108
     37 C          63.8190   83.4952   11.5722 C.ar    1  UNL1        0.0553
     38 CL         63.4828   82.6938   10.3496 Cl      1  UNL1       -0.0825
     39 C          62.8347   84.4908   12.1105 C.ar    1  UNL1        0.0079
     40 C          63.1710   85.2922   13.3331 C.ar    1  UNL1       -0.0060
     41 C          64.8278   85.8993   15.2400 C.3     1  UNL1        0.0359
     42 C          63.9151   85.8705   16.4301 C.3     1  UNL1        0.0897
     43 C          62.5482   89.5916   16.6159 C.3     1  UNL1        0.1107
     44 N          63.4450   88.4237   16.3301 N.am    1  UNL1       -0.3026
     45 C          63.0183   87.0384   16.7159 C.2     1  UNL1        0.2229
     46 O          61.6947   86.8210   17.3876 O.2     1  UNL1       -0.2751
     47 H          64.3136   88.5663   15.8893 H       1  UNL1        0.1495
@<TRIPOS>BOND
     1    43    44    1
     2    44    45   am
     3    45    46    2
     4    45    42    1
     5    42    41    1
     6    41    34    1
     7    34    35   ar
     8    35    36   ar
     9    36    37   ar
    10    37    38    1
    11    37    39   ar
    12    39    33    1
    13    33    27    1
    14    27    28   am
    15    28    29    2
    16     1    28    1
    17     1     2    1
    18     2     3    1
    19     3     4    1
    20     4     5    1
    21     5     6    1
    22     6     8    1
    23     8     9   ar
    24     9    10   ar
    25    10    11   ar
    26    11    14    1
    27    14    15    1
    28    15    16    1
    29    16    17    1
    30    17    18    1
    31    18    19   ar
    32    19    20    1
    33    19    21   ar
    34    21    22   ar
    35    22    23    1
    36    22    24   ar
    37    24    25   ar
    38    25    26    1
    39    11    12   ar
    40    12    13   ar
    41    27    30    1
    42    30    31    1
    43    31    32    1
    44    39    40   ar
    45    40    34   ar
    46     6     1    1
    47    13     8   ar
    48    32    30    1
    49    25    18   ar
    50    44    47    1
    51     3     7    1
