@<TRIPOS>MOLECULE
*****
 36 38 0 0 0
SMALL
GASTEIGER

@<TRIPOS>ATOM
      1 C          60.8879   87.8757    9.3151 C.ar    1  UNL1       -0.0185
      2 C          60.2435   87.1875    8.1485 C.ar    1  UNL1       -0.0041
      3 C          59.5752   87.9962    7.0763 C.ar    1  UNL1        0.0057
      4 C          59.5513   89.4930    7.1709 C.ar    1  UNL1        0.0696
      5 C          60.1957   90.1812    8.3376 C.ar    1  UNL1        0.0095
      6 C          60.8641   89.3725    9.4097 C.ar    1  UNL1        0.0677
      7 C          63.5612   84.6411   13.6036 C.2     1  UNL1        0.2490
      8 O          64.4576   85.3131   14.6010 O.2     1  UNL1       -0.2699
      9 N          62.8929   85.4497   12.5315 N.am    1  UNL1       -0.2761
     10 C          61.9964   84.7777   11.5341 C.3     1  UNL1        0.0940
     11 C          61.3281   85.5864   10.4620 C.3     1  UNL1        0.0259
     12 C          61.5562   87.0670   10.3873 C.3     1  UNL1        0.0257
     13 C          62.4527   87.7391   11.3846 C.3     1  UNL1        0.0259
     14 C          63.1210   86.9304   12.4567 C.3     1  UNL1        0.0940
     15 C          61.7278   81.1453   14.0136 C.ar    1  UNL1        0.0686
     16 C          62.8767   80.1991   13.8279 C.ar    1  UNL1        0.0103
     17 C          64.2539   80.7336   13.5674 C.ar    1  UNL1        0.0008
     18 C          64.4820   82.2142   13.4926 C.ar    1  UNL1        0.0046
     19 C          63.3331   83.1604   13.6784 C.ar    1  UNL1        0.0542
     20 C          61.9559   82.6259   13.9389 C.ar    1  UNL1        0.0148
     21 N          58.9735   80.0764   14.5346 N.1     1  UNL1       -0.1908
     22 C          60.3506   80.6109   14.2741 C.1     1  UNL1        0.1004
     23 C          58.8830   90.3016    6.0988 C.2     1  UNL1        0.3078
     24 O          57.4212   90.1142    5.8194 O.2     1  UNL1       -0.2516
     25 N          59.6764   91.2976    5.3061 N.am    1  UNL1       -0.1708
     26 H          60.6359   91.4206    5.4895 H       1  UNL1        0.2545
     27 C          59.0081   92.1063    4.2339 C.2     1  UNL1        0.3751
     28 N          57.5240   92.0111    4.0380 N.pl3   1  UNL1       -0.1313
     29 N          59.8238   93.0100    3.3577 N.pl3   1  UNL1       -0.2906
     30 H          56.9886   91.4180    4.6131 H       1  UNL1        0.3060
     31 H          60.7979   93.0724    3.4863 H       1  UNL1        0.2545
     32 H          59.3852   93.5407    2.6540 H       1  UNL1        0.2545
     33 C          61.5085   90.0607   10.5763 C.3     1  UNL1        0.4183
     34 F          62.1529   90.7489   11.7430 F       1  UNL1       -0.1659
     35 F          62.7843   90.1863    9.7975 F       1  UNL1       -0.1659
     36 F          60.2327   89.9351   11.3552 F       1  UNL1       -0.1659
@<TRIPOS>BOND
     1    21    22    3
     2    22    15    1
     3    15    16   ar
     4    16    17   ar
     5    17    18   ar
     6    18    19   ar
     7    19     7    1
     8     7     8    2
     9     7     9   am
    10     9    10    1
    11    10    11    1
    12    11    12    1
    13    12     1    1
    14     1     2   ar
    15     2     3   ar
    16     3     4   ar
    17     4    23    1
    18    23    24    2
    19    23    25   am
    20    25    27    1
    21    27    28    2
    22    27    29    1
    23     4     5   ar
    24     5     6   ar
    25     6    33    1
    26    33    34    1
    27    33    35    1
    28    33    36    1
    29    12    13    1
    30    13    14    1
    31    19    20   ar
    32    20    15   ar
    33    14     9    1
    34     6     1   ar
    35    25    26    1
    36    28    30    1
    37    29    31    1
    38    29    32    1
@<TRIPOS>MOLECULE
*****
 36 38 0 0 0
SMALL
GASTEIGER

@<TRIPOS>ATOM
      1 C          60.9020   87.8718    9.3539 C.ar    1  UNL1       -0.0185
      2 C          60.4395   89.2674    9.6516 C.ar    1  UNL1       -0.0041
      3 C          59.7731   90.0809    8.5819 C.ar    1  UNL1        0.0057
      4 C          59.5692   89.4988    7.2146 C.ar    1  UNL1        0.0696
      5 C          60.0317   88.1033    6.9169 C.ar    1  UNL1        0.0095
      6 C          60.6981   87.2898    7.9865 C.ar    1  UNL1        0.0677
      7 C          63.5677   84.6178   13.6323 C.2     1  UNL1        0.2490
      8 O          64.4729   85.2833   14.6262 O.2     1  UNL1       -0.2699
      9 N          62.9013   85.4313   12.5627 N.am    1  UNL1       -0.2761
     10 C          61.9961   84.7659   11.5688 C.3     1  UNL1        0.0940
     11 C          61.3297   85.5795   10.4992 C.3     1  UNL1        0.0259
     12 C          61.5684   87.0584   10.4235 C.3     1  UNL1        0.0257
     13 C          62.4736   87.7238   11.4174 C.3     1  UNL1        0.0259
     14 C          63.1400   86.9103   12.4870 C.3     1  UNL1        0.0940
     15 C          61.7064   81.1352   14.0286 C.ar    1  UNL1        0.0686
     16 C          62.8513   80.1810   13.8595 C.ar    1  UNL1        0.0103
     17 C          64.2351   80.7058   13.6147 C.ar    1  UNL1        0.0008
     18 C          64.4739   82.1847   13.5390 C.ar    1  UNL1        0.0046
     19 C          63.3289   83.1388   13.7081 C.ar    1  UNL1        0.0542
     20 C          61.9452   82.6141   13.9529 C.ar    1  UNL1        0.0148
     21 N          58.9389   80.0857   14.5182 N.1     1  UNL1       -0.1908
     22 C          60.3227   80.6105   14.2734 C.1     1  UNL1        0.1004
     23 C          58.9028   90.3123    6.1450 C.2     1  UNL1        0.3078
     24 O          57.4305   90.1648    5.8982 O.2     1  UNL1       -0.2516
     25 N          59.7085   91.2733    5.3221 N.am    1  UNL1       -0.1708
     26 H          60.6748   91.3702    5.4840 H       1  UNL1        0.2545
     27 C          59.0420   92.0868    4.2524 C.2     1  UNL1        0.3751
     28 N          57.5674   91.9493    4.0149 N.pl3   1  UNL1       -0.1313
     29 N          59.8503   93.0378    3.4203 N.pl3   1  UNL1       -0.2906
     30 H          57.0369   91.3252    4.5610 H       1  UNL1        0.3060
     31 H          60.8182   93.1281    3.5762 H       1  UNL1        0.2545
     32 H          59.4129   93.5717    2.7183 H       1  UNL1        0.2545
     33 C          61.1606   85.8943    7.6887 C.3     1  UNL1        0.4183
     34 F          61.6231   84.4988    7.3910 F       1  UNL1       -0.1659
     35 F          62.5799   86.3119    7.9362 F       1  UNL1       -0.1659
     36 F          59.7413   85.4767    7.4413 F       1  UNL1       -0.1659
@<TRIPOS>BOND
     1    21    22    3
     2    22    15    1
     3    15    16   ar
     4    16    17   ar
     5    17    18   ar
     6    18    19   ar
     7    19     7    1
     8     7     8    2
     9     7     9   am
    10     9    10    1
    11    10    11    1
    12    11    12    1
    13    12     1    1
    14     1     2   ar
    15     2     3   ar
    16     3     4   ar
    17     4    23    1
    18    23    24    2
    19    23    25   am
    20    25    27    1
    21    27    28    2
    22    27    29    1
    23     4     5   ar
    24     5     6   ar
    25     6    33    1
    26    33    34    1
    27    33    35    1
    28    33    36    1
    29    12    13    1
    30    13    14    1
    31    19    20   ar
    32    20    15   ar
    33    14     9    1
    34     6     1   ar
    35    25    26    1
    36    28    30    1
    37    29    31    1
    38    29    32    1
@<TRIPOS>MOLECULE
*****
 36 38 0 0 0
SMALL
GASTEIGER

@<TRIPOS>ATOM
      1 C          63.1626   84.7279   12.2184 C.ar    1  UNL1       -0.0185
      2 C          63.1859   84.1640   10.8287 C.ar    1  UNL1       -0.0041
      3 C          63.0965   82.6814   10.6193 C.ar    1  UNL1        0.0057
      4 C          62.9839   81.7627   11.7996 C.ar    1  UNL1        0.0696
      5 C          62.9606   82.3266   13.1894 C.ar    1  UNL1        0.0095
      6 C          63.0500   83.8091   13.3988 C.ar    1  UNL1        0.0677
      7 C          63.5200   90.6583   13.0562 C.2     1  UNL1        0.2490
      8 O          62.7993   91.5916   12.1290 O.2     1  UNL1       -0.2699
      9 N          63.4307   89.1758   12.8468 N.am    1  UNL1       -0.2761
     10 C          64.1514   88.2425   13.7740 C.3     1  UNL1        0.0940
     11 C          64.0620   86.7599   13.5645 C.3     1  UNL1        0.0259
     12 C          63.2520   86.2105   12.4279 C.3     1  UNL1        0.0257
     13 C          62.5312   87.1437   11.5007 C.3     1  UNL1        0.0259
     14 C          62.6206   88.6263   11.7101 C.3     1  UNL1        0.0940
     15 C          66.5695   92.1551   15.1082 C.ar    1  UNL1        0.0686
     16 C          65.9503   92.3066   16.4660 C.ar    1  UNL1        0.0103
     17 C          64.5210   91.9088   16.6872 C.ar    1  UNL1        0.0008
     18 C          63.7109   91.3594   15.5506 C.ar    1  UNL1        0.0046
     19 C          64.3301   91.2078   14.1929 C.ar    1  UNL1        0.0542
     20 C          65.7594   91.6056   13.9717 C.ar    1  UNL1        0.0148
     21 N          69.4280   92.9508   14.6658 N.1     1  UNL1       -0.1908
     22 C          67.9987   92.5529   14.8870 C.1     1  UNL1        0.1004
     23 C          62.8946   80.2801   11.5902 C.2     1  UNL1        0.3078
     24 O          62.4661   79.3878   12.7173 O.2     1  UNL1       -0.2516
     25 N          63.2337   79.6896   10.2536 N.am    1  UNL1       -0.1708
     26 H          63.5149   80.2752    9.5138 H       1  UNL1        0.2545
     27 C          63.1443   78.2070   10.0442 C.2     1  UNL1        0.3751
     28 N          64.1673   77.5056    9.2007 N.pl3   1  UNL1       -0.1313
     29 N          62.0319   77.4257   10.6784 N.pl3   1  UNL1       -0.2906
     30 H          64.8975   78.0184    8.7845 H       1  UNL1        0.3060
     31 H          61.3605   77.8860   11.2320 H       1  UNL1        0.2545
     32 H          61.9732   76.4526   10.5410 H       1  UNL1        0.2545
     33 C          63.0267   84.3730   14.7886 C.3     1  UNL1        0.4183
     34 F          63.0035   84.9369   16.1784 F       1  UNL1       -0.1659
     35 F          61.5449   84.5789   14.6802 F       1  UNL1       -0.1659
     36 F          64.5086   84.1671   14.8970 F       1  UNL1       -0.1659
@<TRIPOS>BOND
     1    21    22    3
     2    22    15    1
     3    15    16   ar
     4    16    17   ar
     5    17    18   ar
     6    18    19   ar
     7    19     7    1
     8     7     8    2
     9     7     9   am
    10     9    10    1
    11    10    11    1
    12    11    12    1
    13    12     1    1
    14     1     2   ar
    15     2     3   ar
    16     3     4   ar
    17     4    23    1
    18    23    24    2
    19    23    25   am
    20    25    27    1
    21    27    28    2
    22    27    29    1
    23     4     5   ar
    24     5     6   ar
    25     6    33    1
    26    33    34    1
    27    33    35    1
    28    33    36    1
    29    12    13    1
    30    13    14    1
    31    19    20   ar
    32    20    15   ar
    33    14     9    1
    34     6     1   ar
    35    25    26    1
    36    28    30    1
    37    29    31    1
    38    29    32    1
@<TRIPOS>MOLECULE
*****
 36 38 0 0 0
SMALL
GASTEIGER

@<TRIPOS>ATOM
      1 C          57.5446   95.2186   -3.4653 C.ar    1  UNL1       -0.0185
      2 C          57.1738   96.3878   -4.3287 C.ar    1  UNL1       -0.0041
      3 C          55.7310   96.6779   -4.6192 C.ar    1  UNL1        0.0057
      4 C          54.6592   95.7987   -4.0465 C.ar    1  UNL1        0.0696
      5 C          55.0300   94.6294   -3.1831 C.ar    1  UNL1        0.0095
      6 C          56.4727   94.3394   -2.8926 C.ar    1  UNL1        0.0677
      7 C          63.3154   94.0582   -2.3031 C.2     1  UNL1        0.2490
      8 O          64.2330   93.6335   -3.4111 O.2     1  UNL1       -0.2699
      9 N          61.8727   94.3483   -2.5936 N.am    1  UNL1       -0.2761
     10 C          60.9552   94.7730   -1.4856 C.3     1  UNL1        0.0940
     11 C          59.5124   95.0631   -1.7762 C.3     1  UNL1        0.0259
     12 C          58.9873   94.9285   -3.1748 C.3     1  UNL1        0.0257
     13 C          59.9049   94.5038   -4.2828 C.3     1  UNL1        0.0259
     14 C          61.3475   94.2137   -3.9923 C.3     1  UNL1        0.0940
     15 C          63.9712   93.3299    1.5427 C.ar    1  UNL1        0.0686
     16 C          64.8909   94.4619    1.8928 C.ar    1  UNL1        0.0103
     17 C          65.2854   95.4594    0.8443 C.ar    1  UNL1        0.0008
     18 C          64.7603   95.3249   -0.5543 C.ar    1  UNL1        0.0046
     19 C          63.8406   94.1928   -0.9044 C.ar    1  UNL1        0.0542
     20 C          63.4461   93.1953    0.1441 C.ar    1  UNL1        0.0148
     21 N          63.1821   91.3349    3.6397 N.1     1  UNL1       -0.1908
     22 C          63.5767   92.3324    2.5912 C.1     1  UNL1        0.1004
     23 C          53.2165   96.0888   -4.3370 C.2     1  UNL1        0.3078
     24 O          52.8067   96.5644   -5.6994 O.2     1  UNL1       -0.2516
     25 N          52.1835   95.9033   -3.2653 N.am    1  UNL1       -0.1708
     26 H          52.4525   95.5912   -2.3711 H       1  UNL1        0.2545
     27 C          50.7408   96.1935   -3.5559 C.2     1  UNL1        0.3751
     28 N          49.8850   96.8560   -2.5173 N.pl3   1  UNL1       -0.1313
     29 N          50.1539   95.8210   -4.8851 N.pl3   1  UNL1       -0.2906
     30 H          50.2702   97.1004   -1.6449 H       1  UNL1        0.3060
     31 H          50.7156   95.3862   -5.5668 H       1  UNL1        0.2545
     32 H          49.2070   96.0114   -5.0759 H       1  UNL1        0.2545
     33 C          56.8435   93.1701   -2.0293 C.3     1  UNL1        0.4183
     34 F          57.2143   92.0008   -1.1660 F       1  UNL1       -0.1659
     35 F          57.0984   92.3453   -3.2559 F       1  UNL1       -0.1659
     36 F          56.5885   93.9949   -0.8026 F       1  UNL1       -0.1659
@<TRIPOS>BOND
     1    21    22    3
     2    22    15    1
     3    15    16   ar
     4    16    17   ar
     5    17    18   ar
     6    18    19   ar
     7    19     7    1
     8     7     8    2
     9     7     9   am
    10     9    10    1
    11    10    11    1
    12    11    12    1
    13    12     1    1
    14     1     2   ar
    15     2     3   ar
    16     3     4   ar
    17     4    23    1
    18    23    24    2
    19    23    25   am
    20    25    27    1
    21    27    28    2
    22    27    29    1
    23     4     5   ar
    24     5     6   ar
    25     6    33    1
    26    33    34    1
    27    33    35    1
    28    33    36    1
    29    12    13    1
    30    13    14    1
    31    19    20   ar
    32    20    15   ar
    33    14     9    1
    34     6     1   ar
    35    25    26    1
    36    28    30    1
    37    29    31    1
    38    29    32    1
@<TRIPOS>MOLECULE
*****
 36 38 0 0 0
SMALL
GASTEIGER

@<TRIPOS>ATOM
      1 C          60.8674   87.2357    8.5988 C.ar    1  UNL1       -0.0185
      2 C          60.1230   86.7448    7.3926 C.ar    1  UNL1       -0.0041
      3 C          59.3200   87.7043    6.5650 C.ar    1  UNL1        0.0057
      4 C          59.2615   89.1545    6.9437 C.ar    1  UNL1        0.0696
      5 C          60.0059   89.6454    8.1499 C.ar    1  UNL1        0.0095
      6 C          60.8088   88.6860    8.9774 C.ar    1  UNL1        0.0677
      7 C          64.0791   83.3983   11.9093 C.2     1  UNL1        0.2490
      8 O          65.0078   82.4275   11.2422 O.2     1  UNL1       -0.2699
      9 N          63.2762   84.3576   11.0817 N.am    1  UNL1       -0.2761
     10 C          62.3474   85.3284   11.7487 C.3     1  UNL1        0.0940
     11 C          61.5445   86.2878   10.9211 C.3     1  UNL1        0.0259
     12 C          61.6703   86.2764    9.4264 C.3     1  UNL1        0.0257
     13 C          62.5991   85.3056    8.7594 C.3     1  UNL1        0.0259
     14 C          63.4020   84.3462    9.5869 C.3     1  UNL1        0.0940
     15 C          63.5809   84.7127   15.6206 C.ar    1  UNL1        0.0686
     16 C          63.7016   83.4327   16.3933 C.ar    1  UNL1        0.0103
     17 C          63.9482   82.1412   15.6712 C.ar    1  UNL1        0.0008
     18 C          64.0740   82.1297   14.1766 C.ar    1  UNL1        0.0046
     19 C          63.9533   83.4097   13.4040 C.ar    1  UNL1        0.0542
     20 C          63.7067   84.7012   14.1260 C.ar    1  UNL1        0.0148
     21 N          63.0877   87.2956   17.0647 N.1     1  UNL1       -0.1908
     22 C          63.3343   86.0041   16.3427 C.1     1  UNL1        0.1004
     23 C          58.4586   90.1138    6.1161 C.2     1  UNL1        0.3078
     24 O          56.9598   90.0635    6.1524 O.2     1  UNL1       -0.2516
     25 N          59.1544   91.1235    5.2521 N.am    1  UNL1       -0.1708
     26 H          60.1380   91.1566    5.2283 H       1  UNL1        0.2545
     27 C          58.3514   92.0829    4.4245 C.2     1  UNL1        0.3751
     28 N          56.9860   92.5053    4.8796 N.pl3   1  UNL1       -0.1313
     29 N          58.9138   92.6198    3.1418 N.pl3   1  UNL1       -0.2906
     30 H          56.6168   92.1529    5.7215 H       1  UNL1        0.3060
     31 H          59.8100   92.3425    2.8431 H       1  UNL1        0.2545
     32 H          58.3868   93.2494    2.5986 H       1  UNL1        0.2545
     33 C          61.5532   89.1769   10.1836 C.3     1  UNL1        0.4183
     34 F          62.2976   89.6678   11.3898 F       1  UNL1       -0.1659
     35 F          60.2563   89.3302   10.9216 F       1  UNL1       -0.1659
     36 F          62.8501   89.0235    9.4457 F       1  UNL1       -0.1659
@<TRIPOS>BOND
     1    21    22    3
     2    22    15    1
     3    15    16   ar
     4    16    17   ar
     5    17    18   ar
     6    18    19   ar
     7    19     7    1
     8     7     8    2
     9     7     9   am
    10     9    10    1
    11    10    11    1
    12    11    12    1
    13    12     1    1
    14     1     2   ar
    15     2     3   ar
    16     3     4   ar
    17     4    23    1
    18    23    24    2
    19    23    25   am
    20    25    27    1
    21    27    28    2
    22    27    29    1
    23     4     5   ar
    24     5     6   ar
    25     6    33    1
    26    33    34    1
    27    33    35    1
    28    33    36    1
    29    12    13    1
    30    13    14    1
    31    19    20   ar
    32    20    15   ar
    33    14     9    1
    34     6     1   ar
    35    25    26    1
    36    28    30    1
    37    29    31    1
    38    29    32    1
@<TRIPOS>MOLECULE
*****
 36 38 0 0 0
SMALL
GASTEIGER

@<TRIPOS>ATOM
      1 C          63.1640   84.8396   12.2504 C.ar    1  UNL1       -0.0185
      2 C          63.4440   83.8975   13.3836 C.ar    1  UNL1       -0.0041
      3 C          63.3446   82.4161   13.1694 C.ar    1  UNL1        0.0057
      4 C          62.9651   81.8770   11.8221 C.ar    1  UNL1        0.0696
      5 C          62.6850   82.8190   10.6890 C.ar    1  UNL1        0.0095
      6 C          62.7845   84.3003   10.9031 C.ar    1  UNL1        0.0677
      7 C          63.5617   90.7647   13.1070 C.2     1  UNL1        0.2490
      8 O          62.8307   91.7051   12.1952 O.2     1  UNL1       -0.2699
      9 N          63.4623   89.2835   12.8928 N.am    1  UNL1       -0.2761
     10 C          64.1933   88.3431   13.8046 C.3     1  UNL1        0.0940
     11 C          64.0939   86.8618   13.5904 C.3     1  UNL1        0.0259
     12 C          63.2634   86.3209   12.4645 C.3     1  UNL1        0.0257
     13 C          62.5323   87.2612   11.5528 C.3     1  UNL1        0.0259
     14 C          62.6318   88.7425   11.7669 C.3     1  UNL1        0.0940
     15 C          66.6632   92.1956   15.1278 C.ar    1  UNL1        0.0686
     16 C          66.0532   92.3877   16.4846 C.ar    1  UNL1        0.0103
     17 C          64.6128   92.0388   16.7156 C.ar    1  UNL1        0.0008
     18 C          63.7823   91.4978   15.5897 C.ar    1  UNL1        0.0046
     19 C          64.3922   91.3057   14.2329 C.ar    1  UNL1        0.0542
     20 C          65.8327   91.6547   14.0019 C.ar    1  UNL1        0.0148
     21 N          69.5441   92.8934   14.6658 N.1     1  UNL1       -0.1908
     22 C          68.1036   92.5445   14.8968 C.1     1  UNL1        0.1004
     23 C          62.8656   80.3957   11.6080 C.2     1  UNL1        0.3078
     24 O          62.4159   79.5045   12.7277 O.2     1  UNL1       -0.2516
     25 N          63.2159   79.8055   10.2742 N.am    1  UNL1       -0.1708
     26 H          63.5111   80.3904    9.5393 H       1  UNL1        0.2545
     27 C          63.1165   78.3241   10.0601 C.2     1  UNL1        0.3751
     28 N          64.1292   77.6200    9.2066 N.pl3   1  UNL1       -0.1313
     29 N          62.0043   77.5469   10.6996 N.pl3   1  UNL1       -0.2906
     30 H          64.8592   78.1301    8.7869 H       1  UNL1        0.3060
     31 H          61.3396   78.0091   11.2598 H       1  UNL1        0.2545
     32 H          61.9390   76.5747   10.5591 H       1  UNL1        0.2545
     33 C          62.5044   85.2424    9.7699 C.3     1  UNL1        0.4183
     34 F          62.2244   86.1845    8.6368 F       1  UNL1       -0.1659
     35 F          63.8931   85.0252    9.2462 F       1  UNL1       -0.1659
     36 F          61.1157   85.4596   10.2937 F       1  UNL1       -0.1659
@<TRIPOS>BOND
     1    21    22    3
     2    22    15    1
     3    15    16   ar
     4    16    17   ar
     5    17    18   ar
     6    18    19   ar
     7    19     7    1
     8     7     8    2
     9     7     9   am
    10     9    10    1
    11    10    11    1
    12    11    12    1
    13    12     1    1
    14     1     2   ar
    15     2     3   ar
    16     3     4   ar
    17     4    23    1
    18    23    24    2
    19    23    25   am
    20    25    27    1
    21    27    28    2
    22    27    29    1
    23     4     5   ar
    24     5     6   ar
    25     6    33    1
    26    33    34    1
    27    33    35    1
    28    33    36    1
    29    12    13    1
    30    13    14    1
    31    19    20   ar
    32    20    15   ar
    33    14     9    1
    34     6     1   ar
    35    25    26    1
    36    28    30    1
    37    29    31    1
    38    29    32    1
@<TRIPOS>MOLECULE
*****
 36 38 0 0 0
SMALL
GASTEIGER

@<TRIPOS>ATOM
      1 C          56.6733   95.4101   -2.6914 C.ar    1  UNL1       -0.0185
      2 C          55.6995   96.4932   -2.3328 C.ar    1  UNL1       -0.0041
      3 C          54.5005   96.7409   -3.1996 C.ar    1  UNL1        0.0057
      4 C          54.2754   95.9055   -4.4249 C.ar    1  UNL1        0.0696
      5 C          55.2492   94.8224   -4.7835 C.ar    1  UNL1        0.0095
      6 C          56.4481   94.5747   -3.9168 C.ar    1  UNL1        0.0677
      7 C          61.4689   94.4190    0.7755 C.2     1  UNL1        0.2490
      8 O          62.7403   95.1767    0.5314 O.2     1  UNL1       -0.2699
      9 N          60.2700   94.6668   -0.0912 N.am    1  UNL1       -0.2761
     10 C          58.9986   93.9091    0.1528 C.3     1  UNL1        0.0940
     11 C          57.7997   94.1569   -0.7139 C.3     1  UNL1        0.0259
     12 C          57.8722   95.1623   -1.8247 C.3     1  UNL1        0.0257
     13 C          59.1436   95.9200   -2.0688 C.3     1  UNL1        0.0259
     14 C          60.3424   95.6722   -1.2021 C.3     1  UNL1        0.0940
     15 C          60.0332   92.1920    3.7300 C.ar    1  UNL1        0.0686
     16 C          61.2515   91.4029    4.1079 C.ar    1  UNL1        0.0103
     17 C          62.5423   91.6191    3.3751 C.ar    1  UNL1        0.0008
     18 C          62.6148   92.6244    2.2643 C.ar    1  UNL1        0.0046
     19 C          61.3965   93.4136    1.8863 C.ar    1  UNL1        0.0542
     20 C          60.1057   93.1974    2.6192 C.ar    1  UNL1        0.0148
     21 N          57.4516   91.7596    5.1957 N.1     1  UNL1       -0.1908
     22 C          58.7424   91.9758    4.4629 C.1     1  UNL1        0.1004
     23 C          53.0765   96.1533   -5.2916 C.2     1  UNL1        0.3078
     24 O          53.2061   96.0968   -6.7850 O.2     1  UNL1       -0.2516
     25 N          51.7481   96.4575   -4.6650 N.am    1  UNL1       -0.1708
     26 H          51.6630   96.4946   -3.6849 H       1  UNL1        0.2545
     27 C          50.5491   96.7053   -5.5318 C.2     1  UNL1        0.3751
     28 N          50.7070   96.8025   -7.0203 N.pl3   1  UNL1       -0.1313
     29 N          49.1924   96.8558   -4.9101 N.pl3   1  UNL1       -0.2906
     30 H          51.5975   96.7037   -7.4284 H       1  UNL1        0.3060
     31 H          49.0888   96.7921   -3.9331 H       1  UNL1        0.2545
     32 H          48.4055   97.0184   -5.4789 H       1  UNL1        0.2545
     33 C          57.4219   93.4916   -4.2755 C.3     1  UNL1        0.4183
     34 F          58.3957   92.4085   -4.6341 F       1  UNL1       -0.1659
     35 F          56.7035   92.5432   -3.3619 F       1  UNL1       -0.1659
     36 F          58.1403   94.4400   -5.1890 F       1  UNL1       -0.1659
@<TRIPOS>BOND
     1    21    22    3
     2    22    15    1
     3    15    16   ar
     4    16    17   ar
     5    17    18   ar
     6    18    19   ar
     7    19     7    1
     8     7     8    2
     9     7     9   am
    10     9    10    1
    11    10    11    1
    12    11    12    1
    13    12     1    1
    14     1     2   ar
    15     2     3   ar
    16     3     4   ar
    17     4    23    1
    18    23    24    2
    19    23    25   am
    20    25    27    1
    21    27    28    2
    22    27    29    1
    23     4     5   ar
    24     5     6   ar
    25     6    33    1
    26    33    34    1
    27    33    35    1
    28    33    36    1
    29    12    13    1
    30    13    14    1
    31    19    20   ar
    32    20    15   ar
    33    14     9    1
    34     6     1   ar
    35    25    26    1
    36    28    30    1
    37    29    31    1
    38    29    32    1
@<TRIPOS>MOLECULE
*****
 36 38 0 0 0
SMALL
GASTEIGER

@<TRIPOS>ATOM
      1 C          60.9897   87.7428    9.1987 C.ar    1  UNL1       -0.0185
      2 C          60.6731   89.1717    9.5273 C.ar    1  UNL1       -0.0041
      3 C          60.0789   90.0679    8.4815 C.ar    1  UNL1        0.0057
      4 C          59.8013   89.5352    7.1070 C.ar    1  UNL1        0.0696
      5 C          60.1179   88.1063    6.7784 C.ar    1  UNL1        0.0095
      6 C          60.7121   87.2101    7.8241 C.ar    1  UNL1        0.0677
      7 C          63.3665   84.1578   13.3818 C.2     1  UNL1        0.2490
      8 O          64.2430   84.7346   14.4538 O.2     1  UNL1       -0.2699
      9 N          62.7723   85.0541   12.3361 N.am    1  UNL1       -0.2761
     10 C          61.8958   84.4773   11.2641 C.3     1  UNL1        0.0940
     11 C          61.3016   85.3736   10.2182 C.3     1  UNL1        0.0259
     12 C          61.5839   86.8466   10.2445 C.3     1  UNL1        0.0257
     13 C          62.4604   87.4233   11.3165 C.3     1  UNL1        0.0259
     14 C          63.0546   86.5271   12.3622 C.3     1  UNL1        0.0940
     15 C          62.8631   80.4595   12.0332 C.ar    1  UNL1        0.0686
     16 C          62.5197   79.7389   13.3032 C.ar    1  UNL1        0.0103
     17 C          62.4586   80.4914   14.5994 C.ar    1  UNL1        0.0008
     18 C          62.7408   81.9643   14.6256 C.ar    1  UNL1        0.0046
     19 C          63.0842   82.6848   13.3557 C.ar    1  UNL1        0.0542
     20 C          63.1454   81.9324   12.0595 C.ar    1  UNL1        0.0148
     21 N          62.9854   78.9546    9.4409 N.1     1  UNL1       -0.1908
     22 C          62.9243   79.7070   10.7370 C.1     1  UNL1        0.1004
     23 C          59.2071   90.4314    6.0612 C.2     1  UNL1        0.3078
     24 O          60.1008   91.2717    5.1979 O.2     1  UNL1       -0.2516
     25 N          57.7193   90.4873    5.8788 N.am    1  UNL1       -0.1708
     26 H          57.1328   89.9358    6.4454 H       1  UNL1        0.2545
     27 C          57.1251   91.3836    4.8329 C.2     1  UNL1        0.3751
     28 N          58.0059   92.0070    3.7910 N.pl3   1  UNL1       -0.1313
     29 N          55.6502   91.6565    4.8291 N.pl3   1  UNL1       -0.2906
     30 H          58.9740   91.8279    3.7936 H       1  UNL1        0.3060
     31 H          55.0721   91.2474    5.5129 H       1  UNL1        0.2545
     32 H          55.2602   92.2447    4.1427 H       1  UNL1        0.2545
     33 C          61.0287   85.7812    7.4955 C.3     1  UNL1        0.4183
     34 F          61.3454   84.3523    7.1668 F       1  UNL1       -0.1659
     35 F          59.5659   85.4960    7.3262 F       1  UNL1       -0.1659
     36 F          62.4916   86.0664    7.6647 F       1  UNL1       -0.1659
@<TRIPOS>BOND
     1    21    22    3
     2    22    15    1
     3    15    16   ar
     4    16    17   ar
     5    17    18   ar
     6    18    19   ar
     7    19     7    1
     8     7     8    2
     9     7     9   am
    10     9    10    1
    11    10    11    1
    12    11    12    1
    13    12     1    1
    14     1     2   ar
    15     2     3   ar
    16     3     4   ar
    17     4    23    1
    18    23    24    2
    19    23    25   am
    20    25    27    1
    21    27    28    2
    22    27    29    1
    23     4     5   ar
    24     5     6   ar
    25     6    33    1
    26    33    34    1
    27    33    35    1
    28    33    36    1
    29    12    13    1
    30    13    14    1
    31    19    20   ar
    32    20    15   ar
    33    14     9    1
    34     6     1   ar
    35    25    26    1
    36    28    30    1
    37    29    31    1
    38    29    32    1
@<TRIPOS>MOLECULE
*****
 36 38 0 0 0
SMALL
GASTEIGER

@<TRIPOS>ATOM
      1 C          62.6236   83.8943   11.7391 C.ar    1  UNL1       -0.0185
      2 C          62.2424   83.0268   12.9020 C.ar    1  UNL1       -0.0041
      3 C          62.3289   81.5339   12.7841 C.ar    1  UNL1        0.0057
      4 C          62.7967   80.9086   11.5035 C.ar    1  UNL1        0.0696
      5 C          63.1779   81.7760   10.3406 C.ar    1  UNL1        0.0095
      6 C          63.0914   83.2689   10.4585 C.ar    1  UNL1        0.0677
      7 C          62.2774   89.8657   12.2104 C.2     1  UNL1        0.2490
      8 O          61.1123   90.5988   11.6144 O.2     1  UNL1       -0.2699
      9 N          62.3639   88.3729   12.0926 N.am    1  UNL1       -0.2761
     10 C          63.5290   87.6398   12.6886 C.3     1  UNL1        0.0940
     11 C          63.6155   86.1469   12.5707 C.3     1  UNL1        0.0259
     12 C          62.5370   85.3871   11.8569 C.3     1  UNL1        0.0257
     13 C          61.3719   86.1202   11.2610 C.3     1  UNL1        0.0259
     14 C          61.2854   87.6130   11.3788 C.3     1  UNL1        0.0940
     15 C          65.2927   92.3567   12.8831 C.ar    1  UNL1        0.0686
     16 C          65.5129   92.1451   14.3517 C.ar    1  UNL1        0.0103
     17 C          64.6546   91.1738   15.1065 C.ar    1  UNL1        0.0008
     18 C          63.5761   90.4140   14.3928 C.ar    1  UNL1        0.0046
     19 C          63.3559   90.6255   12.9242 C.ar    1  UNL1        0.0542
     20 C          64.2142   91.5969   12.1694 C.ar    1  UNL1        0.0148
     21 N          67.0094   94.2994   11.3735 N.1     1  UNL1       -0.1908
     22 C          66.1511   93.3280   12.1283 C.1     1  UNL1        0.1004
     23 C          62.8833   79.4157   11.3857 C.2     1  UNL1        0.3078
     24 O          62.5300   78.5491   12.5580 O.2     1  UNL1       -0.2516
     25 N          63.3231   78.7895   10.0956 N.am    1  UNL1       -0.1708
     26 H          63.5550   79.3582    9.3262 H       1  UNL1        0.2545
     27 C          63.4097   77.2965    9.9778 C.2     1  UNL1        0.3751
     28 N          62.4107   76.4293   10.6848 N.pl3   1  UNL1       -0.1313
     29 N          64.4952   76.6710    9.1530 N.pl3   1  UNL1       -0.2906
     30 H          61.6983   76.8399   11.2262 H       1  UNL1        0.3060
     31 H          65.1509   77.2402    8.6890 H       1  UNL1        0.2545
     32 H          64.5520   75.6912    9.0757 H       1  UNL1        0.2545
     33 C          63.4726   84.1363    9.2956 C.3     1  UNL1        0.4183
     34 F          63.8538   85.0038    8.1328 F       1  UNL1       -0.1659
     35 F          62.0220   84.3797    9.0016 F       1  UNL1       -0.1659
     36 F          64.9232   83.8930    9.5897 F       1  UNL1       -0.1659
@<TRIPOS>BOND
     1    21    22    3
     2    22    15    1
     3    15    16   ar
     4    16    17   ar
     5    17    18   ar
     6    18    19   ar
     7    19     7    1
     8     7     8    2
     9     7     9   am
    10     9    10    1
    11    10    11    1
    12    11    12    1
    13    12     1    1
    14     1     2   ar
    15     2     3   ar
    16     3     4   ar
    17     4    23    1
    18    23    24    2
    19    23    25   am
    20    25    27    1
    21    27    28    2
    22    27    29    1
    23     4     5   ar
    24     5     6   ar
    25     6    33    1
    26    33    34    1
    27    33    35    1
    28    33    36    1
    29    12    13    1
    30    13    14    1
    31    19    20   ar
    32    20    15   ar
    33    14     9    1
    34     6     1   ar
    35    25    26    1
    36    28    30    1
    37    29    31    1
    38    29    32    1
