@<TRIPOS>MOLECULE
*****
 48 55 0 0 0
SMALL
GASTEIGER

@<TRIPOS>ATOM
      1 C          62.3619   84.9324    9.5925 C.2     1  UNL1       -0.0307
      2 C          63.6130   84.1318    9.3830 C.2     1  UNL1       -0.0307
      3 C          62.0588   85.5105   10.9430 C.3     1  UNL1        0.0260
      4 C          59.4439   89.6472    7.4824 C.3     1  UNL1        0.0024
      5 C          60.1493   88.7002    8.4074 C.3     1  UNL1        0.0247
      6 C          60.4314   90.1473    8.6843 C.3     1  UNL1        0.0023
      7 C          61.3499   90.5310    9.8063 C.3     1  UNL1        0.0004
      8 C          61.9864   89.4678   10.6515 C.3     1  UNL1        0.0035
      9 C          61.7044   88.0208   10.3747 C.3     1  UNL1        0.0010
     10 C          62.3409   86.9576   11.2199 C.3     1  UNL1        0.0084
     11 C          63.2594   87.3413   12.3419 C.3     1  UNL1        0.0224
     12 C          63.5414   88.7883   12.6188 C.2     1  UNL1       -0.0420
     13 C          64.4600   89.1721   13.7409 C.2     1  UNL1        0.0289
     14 C          64.7420   90.6190   14.0177 C.2     1  UNL1        0.1725
     15 O          65.6605   91.0028   15.1398 O.2     1  UNL1       -0.2914
     16 C          64.1055   91.6823   13.1725 C.3     1  UNL1        0.0694
     17 C          63.1869   91.2985   12.0504 C.3     1  UNL1        0.0118
     18 C          62.9049   89.8516   11.7736 C.3     1  UNL1        0.0157
     19 C          62.2684   90.9148   10.9284 C.3     1  UNL1        0.0041
     20 C          60.7858   87.6370    9.2526 C.3     1  UNL1        0.0024
     21 C          60.3233   86.3033    8.7457 C.3     1  UNL1        0.0026
     22 C          59.4009   86.5421    7.5871 C.3     1  UNL1        0.0292
     23 C          59.2934   88.0236    7.3781 C.3     1  UNL1        0.1104
     24 O          58.4739   88.7081    6.3246 O.3     1  UNL1       -0.3845
     25 H          58.0152   88.0424    5.7885 H       1  UNL1        0.2103
     26 C          64.5609   83.9094   10.5240 C.3     1  UNL1        0.0260
     27 C          64.0354   83.7958   11.9244 C.3     1  UNL1        0.0084
     28 C          64.1435   84.9609   12.8628 C.3     1  UNL1        0.0224
     29 C          63.6180   84.8473   14.2631 C.2     1  UNL1       -0.0420
     30 C          63.7260   86.0125   15.2016 C.2     1  UNL1        0.0289
     31 C          63.2005   85.8988   16.6020 C.2     1  UNL1        0.1725
     32 O          63.3085   87.0640   17.5405 O.2     1  UNL1       -0.2914
     33 C          62.5671   84.6200   17.0638 C.3     1  UNL1        0.0694
     34 C          62.4590   83.4548   16.1254 C.3     1  UNL1        0.0118
     35 C          62.9845   83.5684   14.7250 C.3     1  UNL1        0.0157
     36 C          62.3510   82.2896   15.1869 C.3     1  UNL1        0.0041
     37 C          62.8765   82.4033   13.7866 C.3     1  UNL1        0.0035
     38 C          62.2430   81.1245   14.2484 C.3     1  UNL1        0.0004
     39 C          62.1350   79.9593   13.3100 C.3     1  UNL1        0.0023
     40 C          62.6605   80.0730   11.9096 C.3     1  UNL1        0.0247
     41 C          62.0556   78.7377   12.2278 C.3     1  UNL1        0.0024
     42 C          62.6939   79.1004   10.7681 C.3     1  UNL1        0.1104
     43 O          62.1659   77.6966   10.7901 O.3     1  UNL1       -0.3845
     44 C          63.3481   79.7782    9.6008 C.3     1  UNL1        0.0292
     45 C          63.7189   81.1695   10.0208 C.3     1  UNL1        0.0026
     46 C          63.2940   81.3518   11.4477 C.3     1  UNL1        0.0024
     47 C          63.4020   82.5170   12.3863 C.3     1  UNL1        0.0010
     48 H          61.7930   77.5051   11.6649 H       1  UNL1        0.2103
@<TRIPOS>BOND
     1     5     4    1
     2     5     6    1
     3     6     7    1
     4     8     7    1
     5     8     9    1
     6     9    10    1
     7    10     3    1
     8     3     1    1
     9     1     2    2
    10     2    26    1
    11    27    26    1
    12    27    28    1
    13    28    29    1
    14    29    30    2
    15    30    31    1
    16    31    32    2
    17    31    33    1
    18    33    34    1
    19    34    35    1
    20    35    36    1
    21    35    37    1
    22    37    38    1
    23    38    39    1
    24    39    40    1
    25    40    41    1
    26    40    42    1
    27    42    43    1
    28    42    44    1
    29    44    45    1
    30    46    45    1
    31    46    47    1
    32    10    11    1
    33    11    12    1
    34    12    13    2
    35    13    14    1
    36    14    15    2
    37    14    16    1
    38    16    17    1
    39    17    18    1
    40    18    19    1
    41     9    20    1
    42    20    21    1
    43    21    22    1
    44    22    23    1
    45    23    24    1
    46    20     5    1
    47    23     5    1
    48    18     8    1
    49    47    27    1
    50    18    12    1
    51    35    29    1
    52    47    37    1
    53    46    40    1
    54    43    48    1
    55    24    25    1
@<TRIPOS>MOLECULE
*****
 48 55 0 0 0
SMALL
GASTEIGER

@<TRIPOS>ATOM
      1 C          63.6514   84.1329    9.4064 C.2     1  UNL1       -0.0307
      2 C          62.3957   84.9301    9.5998 C.2     1  UNL1       -0.0307
      3 C          64.5873   83.9163   10.5585 C.3     1  UNL1        0.0260
      4 C          62.0378   78.7594   12.2418 C.3     1  UNL1        0.0024
      5 C          62.6528   80.0912   11.9284 C.3     1  UNL1        0.0247
      6 C          62.1123   79.9818   13.3234 C.3     1  UNL1        0.0023
      7 C          62.2166   81.1475   14.2617 C.3     1  UNL1        0.0004
      8 C          62.8614   82.4225   13.8050 C.3     1  UNL1        0.0035
      9 C          63.4019   82.5319   12.4101 C.3     1  UNL1        0.0010
     10 C          64.0467   83.8069   11.9535 C.3     1  UNL1        0.0084
     11 C          64.1510   84.9725   12.8917 C.3     1  UNL1        0.0224
     12 C          63.6105   84.8632   14.2867 C.2     1  UNL1       -0.0420
     13 C          63.7148   86.0288   15.2250 C.2     1  UNL1        0.0289
     14 C          63.1742   85.9194   16.6199 C.2     1  UNL1        0.1725
     15 O          63.2785   87.0851   17.5583 O.2     1  UNL1       -0.2914
     16 C          62.5294   84.6444   17.0765 C.3     1  UNL1        0.0694
     17 C          62.4251   83.4788   16.1383 C.3     1  UNL1        0.0118
     18 C          62.9657   83.5881   14.7434 C.3     1  UNL1        0.0157
     19 C          62.3208   82.3131   15.2000 C.3     1  UNL1        0.0041
     20 C          63.2976   81.3662   11.4718 C.3     1  UNL1        0.0024
     21 C          63.7364   81.1802   10.0496 C.3     1  UNL1        0.0026
     22 C          63.3628   79.7903    9.6272 C.3     1  UNL1        0.0292
     23 C          62.6931   79.1172   10.7884 C.3     1  UNL1        0.1104
     24 O          62.1577   77.7161   10.8064 O.3     1  UNL1       -0.3845
     25 H          62.3098   77.3008    9.9431 H       1  UNL1        0.2103
     26 C          62.0758   85.5108   10.9453 C.3     1  UNL1        0.0260
     27 C          62.3526   86.9588   11.2224 C.3     1  UNL1        0.0084
     28 C          63.2715   87.3456   12.3431 C.3     1  UNL1        0.0224
     29 C          63.5483   88.7936   12.6201 C.2     1  UNL1       -0.0420
     30 C          64.4672   89.1805   13.7409 C.2     1  UNL1        0.0289
     31 C          64.7439   90.6285   14.0179 C.2     1  UNL1        0.1725
     32 O          65.6629   91.0154   15.1386 O.2     1  UNL1       -0.2914
     33 C          64.1018   91.6896   13.1742 C.3     1  UNL1        0.0694
     34 C          63.1830   91.3027   12.0535 C.3     1  UNL1        0.0118
     35 C          62.9062   89.8547   11.7765 C.3     1  UNL1        0.0157
     36 C          62.2641   90.9158   10.9328 C.3     1  UNL1        0.0041
     37 C          61.9873   89.4678   10.6558 C.3     1  UNL1        0.0035
     38 C          61.3452   90.5290    9.8121 C.3     1  UNL1        0.0004
     39 C          60.4263   90.1421    8.6914 C.3     1  UNL1        0.0023
     40 C          60.1495   88.6941    8.4143 C.3     1  UNL1        0.0247
     41 C          59.4388   89.6387    7.4909 C.3     1  UNL1        0.0024
     42 C          59.2946   88.0145    7.3862 C.3     1  UNL1        0.1104
     43 O          58.4706   88.6963    6.3344 O.3     1  UNL1       -0.3845
     44 C          59.4083   86.5334    7.5944 C.3     1  UNL1        0.0292
     45 C          60.3335   86.2976    8.7512 C.3     1  UNL1        0.0026
     46 C          60.7916   87.6330    9.2580 C.3     1  UNL1        0.0024
     47 C          61.7105   88.0199   10.3787 C.3     1  UNL1        0.0010
     48 H          58.5723   89.6574    6.4167 H       1  UNL1        0.2103
@<TRIPOS>BOND
     1     5     4    1
     2     5     6    1
     3     6     7    1
     4     8     7    1
     5     8     9    1
     6     9    10    1
     7    10     3    1
     8     3     1    1
     9     1     2    2
    10     2    26    1
    11    27    26    1
    12    27    28    1
    13    28    29    1
    14    29    30    2
    15    30    31    1
    16    31    32    2
    17    31    33    1
    18    33    34    1
    19    34    35    1
    20    35    36    1
    21    35    37    1
    22    37    38    1
    23    38    39    1
    24    39    40    1
    25    40    41    1
    26    40    42    1
    27    42    43    1
    28    42    44    1
    29    44    45    1
    30    46    45    1
    31    46    47    1
    32    10    11    1
    33    11    12    1
    34    12    13    2
    35    13    14    1
    36    14    15    2
    37    14    16    1
    38    16    17    1
    39    17    18    1
    40    18    19    1
    41     9    20    1
    42    20    21    1
    43    21    22    1
    44    22    23    1
    45    23    24    1
    46    20     5    1
    47    23     5    1
    48    18     8    1
    49    47    27    1
    50    18    12    1
    51    35    29    1
    52    47    37    1
    53    46    40    1
    54    43    48    1
    55    24    25    1
@<TRIPOS>MOLECULE
*****
 48 55 0 0 0
SMALL
GASTEIGER

@<TRIPOS>ATOM
      1 C          63.7194   87.1192   15.2985 C.2     1  UNL1       -0.0307
      2 C          62.9545   88.1289   16.1020 C.2     1  UNL1       -0.0307
      3 C          64.1669   87.4520   13.9060 C.3     1  UNL1        0.0260
      4 C          63.7374   81.4931   13.4242 C.3     1  UNL1        0.0024
      5 C          63.7840   82.9922   13.4444 C.3     1  UNL1        0.0247
      6 C          63.0542   82.4202   12.2652 C.3     1  UNL1        0.0023
      7 C          62.4521   83.3347   11.2401 C.3     1  UNL1        0.0004
      8 C          62.5797   84.8214   11.3940 C.3     1  UNL1        0.0035
      9 C          63.3095   85.3934   12.5730 C.3     1  UNL1        0.0010
     10 C          63.4371   86.8800   12.7269 C.3     1  UNL1        0.0084
     11 C          62.8350   87.7946   11.7018 C.3     1  UNL1        0.0224
     12 C          62.1052   87.2225   10.5226 C.2     1  UNL1       -0.0420
     13 C          61.5031   88.1371    9.4975 C.2     1  UNL1        0.0289
     14 C          60.7734   87.5651    8.3184 C.2     1  UNL1        0.1725
     15 O          60.1712   88.4797    7.2932 O.2     1  UNL1       -0.2914
     16 C          60.6457   86.0785    8.1645 C.3     1  UNL1        0.0694
     17 C          61.2478   85.1639    9.1897 C.3     1  UNL1        0.0118
     18 C          61.9776   85.7359   10.3687 C.3     1  UNL1        0.0157
     19 C          61.8499   84.2493   10.2148 C.3     1  UNL1        0.0041
     20 C          63.9116   84.4788   13.5982 C.3     1  UNL1        0.0024
     21 C          64.6823   84.7501   14.8561 C.3     1  UNL1        0.0026
     22 C          65.0311   83.4312   15.4796 C.3     1  UNL1        0.0292
     23 C          64.4758   82.3448   14.6071 C.3     1  UNL1        0.1104
     24 O          64.5921   80.8698   14.8540 O.3     1  UNL1       -0.3845
     25 H          65.0871   80.7173   15.6742 H       1  UNL1        0.2103
     26 C          62.6371   89.4713   15.5129 C.3     1  UNL1        0.0260
     27 C          63.6660   90.1934   14.6942 C.3     1  UNL1        0.0084
     28 C          65.0143   90.4933   15.2790 C.3     1  UNL1        0.0224
     29 C          66.0431   91.2153   14.4603 C.2     1  UNL1       -0.0420
     30 C          67.3915   91.5152   15.0450 C.2     1  UNL1        0.0289
     31 C          68.4203   92.2372   14.2263 C.2     1  UNL1        0.1725
     32 O          69.7687   92.5371   14.8111 O.2     1  UNL1       -0.2914
     33 C          68.1007   92.6594   12.8229 C.3     1  UNL1        0.0694
     34 C          66.7524   92.3595   12.2381 C.3     1  UNL1        0.0118
     35 C          65.7235   91.6374   13.0568 C.3     1  UNL1        0.0157
     36 C          65.4039   92.0596   11.6534 C.3     1  UNL1        0.0041
     37 C          64.3752   91.3376   12.4721 C.3     1  UNL1        0.0035
     38 C          64.0556   91.7597   11.0686 C.3     1  UNL1        0.0004
     39 C          62.7072   91.4598   10.4839 C.3     1  UNL1        0.0023
     40 C          61.6784   90.7378   11.3026 C.3     1  UNL1        0.0247
     41 C          61.2171   91.0959    9.9209 C.3     1  UNL1        0.0024
     42 C          60.2743   90.3071   10.9974 C.3     1  UNL1        0.1104
     43 O          59.5463   90.5263    9.7043 O.3     1  UNL1       -0.3845
     44 C          59.7262   89.6188   12.2121 C.3     1  UNL1        0.0292
     45 C          60.7914   89.6241   13.2681 C.3     1  UNL1        0.0026
     46 C          61.9980   90.3156   12.7060 C.3     1  UNL1        0.0024
     47 C          63.3464   90.6155   13.2908 C.3     1  UNL1        0.0010
     48 H          60.1250   90.9952    9.0829 H       1  UNL1        0.2103
@<TRIPOS>BOND
     1     5     4    1
     2     5     6    1
     3     6     7    1
     4     8     7    1
     5     8     9    1
     6     9    10    1
     7    10     3    1
     8     3     1    1
     9     1     2    2
    10     2    26    1
    11    27    26    1
    12    27    28    1
    13    28    29    1
    14    29    30    2
    15    30    31    1
    16    31    32    2
    17    31    33    1
    18    33    34    1
    19    34    35    1
    20    35    36    1
    21    35    37    1
    22    37    38    1
    23    38    39    1
    24    39    40    1
    25    40    41    1
    26    40    42    1
    27    42    43    1
    28    42    44    1
    29    44    45    1
    30    46    45    1
    31    46    47    1
    32    10    11    1
    33    11    12    1
    34    12    13    2
    35    13    14    1
    36    14    15    2
    37    14    16    1
    38    16    17    1
    39    17    18    1
    40    18    19    1
    41     9    20    1
    42    20    21    1
    43    21    22    1
    44    22    23    1
    45    23    24    1
    46    20     5    1
    47    23     5    1
    48    18     8    1
    49    47    27    1
    50    18    12    1
    51    35    29    1
    52    47    37    1
    53    46    40    1
    54    43    48    1
    55    24    25    1
@<TRIPOS>MOLECULE
*****
 48 55 0 0 0
SMALL
GASTEIGER

@<TRIPOS>ATOM
      1 C          62.9728   88.1492   16.1146 C.2     1  UNL1       -0.0307
      2 C          63.7423   87.1360   15.3201 C.2     1  UNL1       -0.0307
      3 C          62.6518   89.4860   15.5147 C.3     1  UNL1        0.0260
      4 C          61.2124   91.1028    9.9254 C.3     1  UNL1        0.0024
      5 C          61.6785   90.7463   11.3058 C.3     1  UNL1        0.0247
      6 C          62.7055   91.4646   10.4816 C.3     1  UNL1        0.0023
      7 C          64.0568   91.7628   11.0602 C.3     1  UNL1        0.0004
      8 C          64.3813   91.3427   12.4632 C.3     1  UNL1        0.0035
      9 C          63.3543   90.6244   13.2874 C.3     1  UNL1        0.0010
     10 C          63.6788   90.2043   14.6904 C.3     1  UNL1        0.0084
     11 C          65.0301   90.5025   15.2691 C.3     1  UNL1        0.0224
     12 C          66.0571   91.2208   14.4448 C.2     1  UNL1       -0.0420
     13 C          67.4085   91.5190   15.0234 C.2     1  UNL1        0.0289
     14 C          68.4354   92.2372   14.1992 C.2     1  UNL1        0.1725
     15 O          69.7868   92.5354   14.7778 O.2     1  UNL1       -0.2914
     16 C          68.1110   92.6573   12.7962 C.3     1  UNL1        0.0694
     17 C          66.7596   92.3592   12.2175 C.3     1  UNL1        0.0118
     18 C          65.7327   91.6409   13.0418 C.3     1  UNL1        0.0157
     19 C          65.4083   92.0610   11.6389 C.3     1  UNL1        0.0041
     20 C          62.0029   90.3262   12.7088 C.3     1  UNL1        0.0024
     21 C          60.7973   89.6383   13.2772 C.3     1  UNL1        0.0026
     22 C          59.7277   89.6332   12.2255 C.3     1  UNL1        0.0292
     23 C          60.2724   90.3180   11.0072 C.3     1  UNL1        0.1104
     24 O          59.5394   90.5362    9.7167 O.3     1  UNL1       -0.3845
     25 H          58.6464   90.1638    9.7851 H       1  UNL1        0.2103
     26 C          64.1907   87.4595   13.9258 C.3     1  UNL1        0.0260
     27 C          63.4553   86.8882   12.7499 C.3     1  UNL1        0.0084
     28 C          62.8509   87.8033   11.7265 C.3     1  UNL1        0.0224
     29 C          62.1156   87.2319   10.5507 C.2     1  UNL1       -0.0420
     30 C          61.5112   88.1471    9.5272 C.2     1  UNL1        0.0289
     31 C          60.7758   87.5757    8.3514 C.2     1  UNL1        0.1725
     32 O          60.1714   88.4908    7.3279 O.2     1  UNL1       -0.2914
     33 C          60.6447   86.0892    8.1988 C.3     1  UNL1        0.0694
     34 C          61.2491   85.1741    9.2222 C.3     1  UNL1        0.0118
     35 C          61.9845   85.7455   10.3981 C.3     1  UNL1        0.0157
     36 C          61.8535   84.2590   10.2456 C.3     1  UNL1        0.0041
     37 C          62.5889   84.8304   11.4215 C.3     1  UNL1        0.0035
     38 C          62.4579   83.3439   11.2689 C.3     1  UNL1        0.0004
     39 C          63.0622   82.4288   12.2923 C.3     1  UNL1        0.0023
     40 C          63.7976   83.0001   13.4682 C.3     1  UNL1        0.0247
     41 C          63.7482   81.5010   13.4493 C.3     1  UNL1        0.0024
     42 C          64.4928   82.3520   14.6287 C.3     1  UNL1        0.1104
     43 O          64.6072   80.8770   14.8760 O.3     1  UNL1       -0.3845
     44 C          65.0534   83.4379   15.4984 C.3     1  UNL1        0.0292
     45 C          64.7048   84.7571   14.8755 C.3     1  UNL1        0.0026
     46 C          63.9287   84.4866   13.6208 C.3     1  UNL1        0.0024
     47 C          63.3243   85.4017   12.5973 C.3     1  UNL1        0.0010
     48 H          64.1587   80.3941   14.1643 H       1  UNL1        0.2103
@<TRIPOS>BOND
     1     5     4    1
     2     5     6    1
     3     6     7    1
     4     8     7    1
     5     8     9    1
     6     9    10    1
     7    10     3    1
     8     3     1    1
     9     1     2    2
    10     2    26    1
    11    27    26    1
    12    27    28    1
    13    28    29    1
    14    29    30    2
    15    30    31    1
    16    31    32    2
    17    31    33    1
    18    33    34    1
    19    34    35    1
    20    35    36    1
    21    35    37    1
    22    37    38    1
    23    38    39    1
    24    39    40    1
    25    40    41    1
    26    40    42    1
    27    42    43    1
    28    42    44    1
    29    44    45    1
    30    46    45    1
    31    46    47    1
    32    10    11    1
    33    11    12    1
    34    12    13    2
    35    13    14    1
    36    14    15    2
    37    14    16    1
    38    16    17    1
    39    17    18    1
    40    18    19    1
    41     9    20    1
    42    20    21    1
    43    21    22    1
    44    22    23    1
    45    23    24    1
    46    20     5    1
    47    23     5    1
    48    18     8    1
    49    47    27    1
    50    18    12    1
    51    35    29    1
    52    47    37    1
    53    46    40    1
    54    43    48    1
    55    24    25    1
@<TRIPOS>MOLECULE
*****
 48 55 0 0 0
SMALL
GASTEIGER

@<TRIPOS>ATOM
      1 C          61.7935   89.9117    9.8916 C.2     1  UNL1       -0.0307
      2 C          60.7076   88.8955    9.6962 C.2     1  UNL1       -0.0307
      3 C          62.5938   89.9197   11.1602 C.3     1  UNL1        0.0260
      4 C          64.3493   91.0318   16.7823 C.3     1  UNL1        0.0024
      5 C          63.9845   90.8377   15.3403 C.3     1  UNL1        0.0247
      6 C          65.0138   91.9042   15.5711 C.3     1  UNL1        0.0023
      7 C          65.5795   92.6646   14.4085 C.3     1  UNL1        0.0004
      8 C          65.1160   92.3586   13.0151 C.3     1  UNL1        0.0035
      9 C          64.0867   91.2922   12.7843 C.3     1  UNL1        0.0010
     10 C          63.6231   90.9862   11.3910 C.3     1  UNL1        0.0084
     11 C          64.1888   91.7466   10.2284 C.3     1  UNL1        0.0224
     12 C          65.2182   92.8131   10.4591 C.2     1  UNL1       -0.0420
     13 C          65.7839   93.5735    9.2965 C.2     1  UNL1        0.0289
     14 C          66.8131   94.6399    9.5272 C.2     1  UNL1        0.1725
     15 O          67.3789   95.4004    8.3646 O.2     1  UNL1       -0.2914
     16 C          67.2767   94.9459   10.9206 C.3     1  UNL1        0.0694
     17 C          66.7110   94.1855   12.0832 C.3     1  UNL1        0.0118
     18 C          65.6817   93.1191   11.8524 C.3     1  UNL1        0.0157
     19 C          66.1453   93.4251   13.2458 C.3     1  UNL1        0.0041
     20 C          63.5209   90.5317   13.9470 C.3     1  UNL1        0.0024
     21 C          62.5019   89.4340   14.0281 C.3     1  UNL1        0.0026
     22 C          62.3357   89.0616   15.4715 C.3     1  UNL1        0.0292
     23 C          63.2520   89.9291   16.2825 C.3     1  UNL1        0.1104
     24 O          63.4083   89.8942   17.7740 O.3     1  UNL1       -0.3845
     25 H          62.8206   89.2174   18.1449 H       1  UNL1        0.2103
     26 C          60.4222   87.8872   10.7694 C.3     1  UNL1        0.0260
     27 C          61.4322   86.8252   11.0886 C.3     1  UNL1        0.0084
     28 C          61.9939   86.7167   12.4752 C.3     1  UNL1        0.0224
     29 C          63.0039   85.6546   12.7942 C.2     1  UNL1       -0.0420
     30 C          63.5656   85.5461   14.1809 C.2     1  UNL1        0.0289
     31 C          64.5757   84.4841   14.5000 C.2     1  UNL1        0.1725
     32 O          65.1374   84.3756   15.8867 O.2     1  UNL1       -0.2914
     33 C          65.0240   83.5305   13.4325 C.3     1  UNL1        0.0694
     34 C          64.4624   83.6390   12.0458 C.3     1  UNL1        0.0118
     35 C          63.4523   84.7011   11.7267 C.3     1  UNL1        0.0157
     36 C          63.9007   83.7475   10.6592 C.3     1  UNL1        0.0041
     37 C          62.8907   84.8095   10.3401 C.3     1  UNL1        0.0035
     38 C          63.3390   83.8560    9.2726 C.3     1  UNL1        0.0004
     39 C          62.7774   83.9644    7.8859 C.3     1  UNL1        0.0023
     40 C          61.7673   85.0265    7.5668 C.3     1  UNL1        0.0247
     41 C          62.1184   84.1488    6.4022 C.3     1  UNL1        0.0024
     42 C          61.0428   85.3746    6.3003 C.3     1  UNL1        0.1104
     43 O          61.1889   84.6765    4.9807 O.3     1  UNL1       -0.3845
     44 C          60.1467   86.5432    6.5852 C.3     1  UNL1        0.0292
     45 C          60.3173   86.9175    8.0276 C.3     1  UNL1        0.0026
     46 C          61.3189   85.9801    8.6344 C.3     1  UNL1        0.0024
     47 C          61.8806   85.8716   10.0210 C.3     1  UNL1        0.0010
     48 H          61.8310   83.9545    5.0662 H       1  UNL1        0.2103
@<TRIPOS>BOND
     1     5     4    1
     2     5     6    1
     3     6     7    1
     4     8     7    1
     5     8     9    1
     6     9    10    1
     7    10     3    1
     8     3     1    1
     9     1     2    2
    10     2    26    1
    11    27    26    1
    12    27    28    1
    13    28    29    1
    14    29    30    2
    15    30    31    1
    16    31    32    2
    17    31    33    1
    18    33    34    1
    19    34    35    1
    20    35    36    1
    21    35    37    1
    22    37    38    1
    23    38    39    1
    24    39    40    1
    25    40    41    1
    26    40    42    1
    27    42    43    1
    28    42    44    1
    29    44    45    1
    30    46    45    1
    31    46    47    1
    32    10    11    1
    33    11    12    1
    34    12    13    2
    35    13    14    1
    36    14    15    2
    37    14    16    1
    38    16    17    1
    39    17    18    1
    40    18    19    1
    41     9    20    1
    42    20    21    1
    43    21    22    1
    44    22    23    1
    45    23    24    1
    46    20     5    1
    47    23     5    1
    48    18     8    1
    49    47    27    1
    50    18    12    1
    51    35    29    1
    52    47    37    1
    53    46    40    1
    54    43    48    1
    55    24    25    1
@<TRIPOS>MOLECULE
*****
 48 55 0 0 0
SMALL
GASTEIGER

@<TRIPOS>ATOM
      1 C          60.6915   88.8711    9.6907 C.2     1  UNL1       -0.0307
      2 C          61.7728   89.8915    9.8895 C.2     1  UNL1       -0.0307
      3 C          60.4073   87.8610   10.7626 C.3     1  UNL1        0.0260
      4 C          62.1503   84.1238    6.4128 C.3     1  UNL1        0.0024
      5 C          61.7876   85.0020    7.5735 C.3     1  UNL1        0.0247
      6 C          62.8043   83.9484    7.8998 C.3     1  UNL1        0.0023
      7 C          63.3608   83.8479    9.2891 C.3     1  UNL1        0.0004
      8 C          62.9007   84.8009   10.3521 C.3     1  UNL1        0.0035
      9 C          61.8841   85.8544   10.0259 C.3     1  UNL1        0.0010
     10 C          61.4239   86.8074   11.0889 C.3     1  UNL1        0.0084
     11 C          61.9805   86.7069   12.4782 C.3     1  UNL1        0.0224
     12 C          62.9971   85.6534   12.8045 C.2     1  UNL1       -0.0420
     13 C          63.5536   85.5528   14.1938 C.2     1  UNL1        0.0289
     14 C          64.5703   84.4993   14.5200 C.2     1  UNL1        0.1725
     15 O          65.1268   84.3988   15.9094 O.2     1  UNL1       -0.2914
     16 C          65.0304   83.5463   13.4570 C.3     1  UNL1        0.0694
     17 C          64.4739   83.6468   12.0677 C.3     1  UNL1        0.0118
     18 C          63.4573   84.7003   11.7414 C.3     1  UNL1        0.0157
     19 C          63.9174   83.7473   10.6784 C.3     1  UNL1        0.0041
     20 C          61.3275   85.9550    8.6365 C.3     1  UNL1        0.0024
     21 C          60.3216   86.8831    8.0230 C.3     1  UNL1        0.0026
     22 C          60.1599   86.5038    6.5808 C.3     1  UNL1        0.0292
     23 C          61.0660   85.3411    6.3030 C.3     1  UNL1        0.1104
     24 O          61.2229   84.6407    4.9859 O.3     1  UNL1       -0.3845
     25 H          60.6434   85.0556    4.3280 H       1  UNL1        0.2103
     26 C          62.5699   89.9017   11.1601 C.3     1  UNL1        0.0260
     27 C          63.5974   90.9697   11.3923 C.3     1  UNL1        0.0084
     28 C          64.1591   91.7353   10.2311 C.3     1  UNL1        0.0224
     29 C          65.1865   92.8031   10.4634 C.2     1  UNL1       -0.0420
     30 C          65.7482   93.5688    9.3022 C.2     1  UNL1        0.0289
     31 C          66.7756   94.6367    9.5345 C.2     1  UNL1        0.1725
     32 O          67.3373   95.4024    8.3733 O.2     1  UNL1       -0.2914
     33 C          67.2414   94.9389   10.9279 C.3     1  UNL1        0.0694
     34 C          66.6798   94.1733   12.0891 C.3     1  UNL1        0.0118
     35 C          65.6523   93.1054   11.8568 C.3     1  UNL1        0.0157
     36 C          66.1181   93.4076   13.2503 C.3     1  UNL1        0.0041
     37 C          65.0907   92.3398   13.0180 C.3     1  UNL1        0.0035
     38 C          65.5565   92.6420   14.4114 C.3     1  UNL1        0.0004
     39 C          64.9949   91.8764   15.5726 C.3     1  UNL1        0.0023
     40 C          63.9674   90.8085   15.3404 C.3     1  UNL1        0.0247
     41 C          64.3347   90.9984   16.7823 C.3     1  UNL1        0.0024
     42 C          63.2387   89.8951   16.2810 C.3     1  UNL1        0.1104
     43 O          63.3982   89.8554   17.7720 O.3     1  UNL1       -0.3845
     44 C          62.3226   89.0284   15.4689 C.3     1  UNL1        0.0292
     45 C          62.4850   89.4061   14.0264 C.3     1  UNL1        0.0026
     46 C          63.5015   90.5062   13.9469 C.3     1  UNL1        0.0024
     47 C          64.0632   91.2719   12.7857 C.3     1  UNL1        0.0010
     48 H          64.0524   90.5176   18.0449 H       1  UNL1        0.2103
@<TRIPOS>BOND
     1     5     4    1
     2     5     6    1
     3     6     7    1
     4     8     7    1
     5     8     9    1
     6     9    10    1
     7    10     3    1
     8     3     1    1
     9     1     2    2
    10     2    26    1
    11    27    26    1
    12    27    28    1
    13    28    29    1
    14    29    30    2
    15    30    31    1
    16    31    32    2
    17    31    33    1
    18    33    34    1
    19    34    35    1
    20    35    36    1
    21    35    37    1
    22    37    38    1
    23    38    39    1
    24    39    40    1
    25    40    41    1
    26    40    42    1
    27    42    43    1
    28    42    44    1
    29    44    45    1
    30    46    45    1
    31    46    47    1
    32    10    11    1
    33    11    12    1
    34    12    13    2
    35    13    14    1
    36    14    15    2
    37    14    16    1
    38    16    17    1
    39    17    18    1
    40    18    19    1
    41     9    20    1
    42    20    21    1
    43    21    22    1
    44    22    23    1
    45    23    24    1
    46    20     5    1
    47    23     5    1
    48    18     8    1
    49    47    27    1
    50    18    12    1
    51    35    29    1
    52    47    37    1
    53    46    40    1
    54    43    48    1
    55    24    25    1
@<TRIPOS>MOLECULE
*****
 48 55 0 0 0
SMALL
GASTEIGER

@<TRIPOS>ATOM
      1 C          59.7301   91.4723   -0.5857 C.2     1  UNL1       -0.0307
      2 C          59.4542   92.1156    0.7409 C.2     1  UNL1       -0.0307
      3 C          59.0729   92.0003   -1.8264 C.3     1  UNL1        0.0260
      4 C          56.5540   93.3188   -7.1031 C.3     1  UNL1        0.0024
      5 C          57.2810   93.0447   -5.8200 C.3     1  UNL1        0.0247
      6 C          58.0846   93.8175   -6.8236 C.3     1  UNL1        0.0023
      7 C          59.4855   94.2420   -6.4960 C.3     1  UNL1        0.0004
      8 C          60.0828   93.8939   -5.1648 C.3     1  UNL1        0.0035
      9 C          59.2792   93.1212   -4.1612 C.3     1  UNL1        0.0010
     10 C          59.8765   92.7730   -2.8300 C.3     1  UNL1        0.0084
     11 C          61.2773   93.1976   -2.5024 C.3     1  UNL1        0.0224
     12 C          62.0810   93.9703   -3.5060 C.2     1  UNL1       -0.0420
     13 C          63.4818   94.3948   -3.1784 C.2     1  UNL1        0.0289
     14 C          64.2854   95.1675   -4.1820 C.2     1  UNL1        0.1725
     15 O          65.6863   95.5921   -3.8544 O.2     1  UNL1       -0.2914
     16 C          63.6881   95.5156   -5.5132 C.3     1  UNL1        0.0694
     17 C          62.2872   95.0911   -5.8408 C.3     1  UNL1        0.0118
     18 C          61.4837   94.3184   -4.8372 C.3     1  UNL1        0.0157
     19 C          60.8864   94.6666   -6.1684 C.3     1  UNL1        0.0041
     20 C          57.8783   92.6966   -4.4888 C.3     1  UNL1        0.0024
     21 C          56.8525   91.9317   -3.7063 C.3     1  UNL1        0.0026
     22 C          55.6212   91.8070   -4.5538 C.3     1  UNL1        0.0292
     23 C          55.8861   92.4950   -5.8601 C.3     1  UNL1        0.1104
     24 O          54.9246   92.6124   -7.0056 O.3     1  UNL1       -0.3845
     25 H          54.0920   92.1714   -6.7753 H       1  UNL1        0.2103
     26 C          58.5211   93.2869    0.8268 C.3     1  UNL1        0.0260
     27 C          58.3210   94.1755   -0.3651 C.3     1  UNL1        0.0084
     28 C          57.0076   94.1739   -1.0897 C.3     1  UNL1        0.0224
     29 C          56.8076   95.0624   -2.2815 C.2     1  UNL1       -0.0420
     30 C          55.4942   95.0608   -3.0061 C.2     1  UNL1        0.0289
     31 C          55.2941   95.9493   -4.1979 C.2     1  UNL1        0.1725
     32 O          53.9807   95.9478   -4.9226 O.2     1  UNL1       -0.2914
     33 C          56.4074   96.8394   -4.6652 C.3     1  UNL1        0.0694
     34 C          57.7208   96.8410   -3.9406 C.3     1  UNL1        0.0118
     35 C          57.9209   95.9525   -2.7487 C.3     1  UNL1        0.0157
     36 C          59.0342   96.8426   -3.2159 C.3     1  UNL1        0.0041
     37 C          59.2342   95.9541   -2.0241 C.3     1  UNL1        0.0035
     38 C          60.3475   96.8442   -2.4913 C.3     1  UNL1        0.0004
     39 C          61.6609   96.8458   -1.7667 C.3     1  UNL1        0.0023
     40 C          61.8610   95.9572   -0.5748 C.3     1  UNL1        0.0247
     41 C          63.0595   96.7889   -0.9239 C.3     1  UNL1        0.0024
     42 C          63.0360   95.7452    0.3331 C.3     1  UNL1        0.1104
     43 O          64.3648   96.4335    0.2306 O.3     1  UNL1       -0.3845
     44 C          62.6489   94.7242    1.3614 C.3     1  UNL1        0.0292
     45 C          61.2347   94.3050    1.0891 C.3     1  UNL1        0.0026
     46 C          60.7477   95.0671   -0.1076 C.3     1  UNL1        0.0024
     47 C          59.4343   95.0656   -0.8323 C.3     1  UNL1        0.0010
     48 H          64.3543   97.0465   -0.5210 H       1  UNL1        0.2103
@<TRIPOS>BOND
     1     5     4    1
     2     5     6    1
     3     6     7    1
     4     8     7    1
     5     8     9    1
     6     9    10    1
     7    10     3    1
     8     3     1    1
     9     1     2    2
    10     2    26    1
    11    27    26    1
    12    27    28    1
    13    28    29    1
    14    29    30    2
    15    30    31    1
    16    31    32    2
    17    31    33    1
    18    33    34    1
    19    34    35    1
    20    35    36    1
    21    35    37    1
    22    37    38    1
    23    38    39    1
    24    39    40    1
    25    40    41    1
    26    40    42    1
    27    42    43    1
    28    42    44    1
    29    44    45    1
    30    46    45    1
    31    46    47    1
    32    10    11    1
    33    11    12    1
    34    12    13    2
    35    13    14    1
    36    14    15    2
    37    14    16    1
    38    16    17    1
    39    17    18    1
    40    18    19    1
    41     9    20    1
    42    20    21    1
    43    21    22    1
    44    22    23    1
    45    23    24    1
    46    20     5    1
    47    23     5    1
    48    18     8    1
    49    47    27    1
    50    18    12    1
    51    35    29    1
    52    47    37    1
    53    46    40    1
    54    43    48    1
    55    24    25    1
@<TRIPOS>MOLECULE
*****
 48 55 0 0 0
SMALL
GASTEIGER

@<TRIPOS>ATOM
      1 C          61.7253   90.3501   11.1198 C.2     1  UNL1       -0.0307
      2 C          60.7507   89.2429   11.3918 C.2     1  UNL1       -0.0307
      3 C          63.1913   90.1325   11.3508 C.3     1  UNL1        0.0260
      4 C          64.9121   91.9742   16.7889 C.3     1  UNL1        0.0024
      5 C          64.5471   91.6000   15.3829 C.3     1  UNL1        0.0247
      6 C          65.4737   92.7756   15.4805 C.3     1  UNL1        0.0023
      7 C          65.9482   93.4620   14.2341 C.3     1  UNL1        0.0004
      8 C          65.4963   92.9729   12.8901 C.3     1  UNL1        0.0035
      9 C          64.5698   91.7973   12.7924 C.3     1  UNL1        0.0010
     10 C          64.1179   91.3081   11.4484 C.3     1  UNL1        0.0084
     11 C          64.5924   91.9945   10.2020 C.3     1  UNL1        0.0224
     12 C          65.5190   93.1702   10.2996 C.2     1  UNL1       -0.0420
     13 C          65.9936   93.8566    9.0532 C.2     1  UNL1        0.0289
     14 C          66.9200   95.0322    9.1508 C.2     1  UNL1        0.1725
     15 O          67.3947   95.7187    7.9044 O.2     1  UNL1       -0.2914
     16 C          67.3720   95.5213   10.4949 C.3     1  UNL1        0.0694
     17 C          66.8974   94.8349   11.7413 C.3     1  UNL1        0.0118
     18 C          65.9709   93.6594   11.6436 C.3     1  UNL1        0.0157
     19 C          66.4228   94.1485   12.9877 C.3     1  UNL1        0.0041
     20 C          64.0952   91.1108   14.0389 C.3     1  UNL1        0.0024
     21 C          63.1863   89.9373   14.2543 C.3     1  UNL1        0.0026
     22 C          63.0764   89.7011   15.7315 C.3     1  UNL1        0.0292
     23 C          63.9175   90.7287   16.4290 C.3     1  UNL1        0.1104
     24 O          64.0973   90.8617   17.9123 O.3     1  UNL1       -0.3845
     25 H          63.5818   90.1748   18.3633 H       1  UNL1        0.2103
     26 C          61.2421   87.9180   11.8948 C.3     1  UNL1        0.0260
     27 C          61.6847   86.8642   10.9233 C.3     1  UNL1        0.0084
     28 C          61.2002   86.9014    9.5042 C.3     1  UNL1        0.0224
     29 C          61.6429   85.8476    8.5328 C.2     1  UNL1       -0.0420
     30 C          61.1584   85.8848    7.1136 C.2     1  UNL1        0.0289
     31 C          61.6010   84.8311    6.1422 C.2     1  UNL1        0.1725
     32 O          61.1165   84.8682    4.7230 O.2     1  UNL1       -0.2914
     33 C          62.5281   83.7402    6.5899 C.3     1  UNL1        0.0694
     34 C          63.0126   83.7030    8.0090 C.3     1  UNL1        0.0118
     35 C          62.5700   84.7567    8.9805 C.3     1  UNL1        0.0157
     36 C          63.4971   83.6658    9.4281 C.3     1  UNL1        0.0041
     37 C          63.0545   84.7196   10.3995 C.3     1  UNL1        0.0035
     38 C          63.9816   83.6287   10.8472 C.3     1  UNL1        0.0004
     39 C          64.4660   83.5915   12.2663 C.3     1  UNL1        0.0023
     40 C          64.0234   84.6452   13.2378 C.3     1  UNL1        0.0247
     41 C          64.9480   83.6217   13.8273 C.3     1  UNL1        0.0024
     42 C          64.3329   84.8664   14.6888 C.3     1  UNL1        0.1104
     43 O          65.2221   84.0102   15.5410 O.3     1  UNL1       -0.3845
     44 C          63.5971   86.0939   15.1378 C.3     1  UNL1        0.0292
     45 C          62.8328   86.6314   13.9645 C.3     1  UNL1        0.0026
     46 C          63.0963   85.7361   12.7901 C.3     1  UNL1        0.0024
     47 C          62.6118   85.7733   11.3710 C.3     1  UNL1        0.0010
     48 H          65.5744   83.2798   15.0088 H       1  UNL1        0.2103
@<TRIPOS>BOND
     1     5     4    1
     2     5     6    1
     3     6     7    1
     4     8     7    1
     5     8     9    1
     6     9    10    1
     7    10     3    1
     8     3     1    1
     9     1     2    2
    10     2    26    1
    11    27    26    1
    12    27    28    1
    13    28    29    1
    14    29    30    2
    15    30    31    1
    16    31    32    2
    17    31    33    1
    18    33    34    1
    19    34    35    1
    20    35    36    1
    21    35    37    1
    22    37    38    1
    23    38    39    1
    24    39    40    1
    25    40    41    1
    26    40    42    1
    27    42    43    1
    28    42    44    1
    29    44    45    1
    30    46    45    1
    31    46    47    1
    32    10    11    1
    33    11    12    1
    34    12    13    2
    35    13    14    1
    36    14    15    2
    37    14    16    1
    38    16    17    1
    39    17    18    1
    40    18    19    1
    41     9    20    1
    42    20    21    1
    43    21    22    1
    44    22    23    1
    45    23    24    1
    46    20     5    1
    47    23     5    1
    48    18     8    1
    49    47    27    1
    50    18    12    1
    51    35    29    1
    52    47    37    1
    53    46    40    1
    54    43    48    1
    55    24    25    1
@<TRIPOS>MOLECULE
*****
 48 55 0 0 0
SMALL
GASTEIGER

@<TRIPOS>ATOM
      1 C          60.7628   89.2774   11.4237 C.2     1  UNL1       -0.0307
      2 C          61.7383   90.3780   11.1287 C.2     1  UNL1       -0.0307
      3 C          61.2556   87.9537   11.9287 C.3     1  UNL1        0.0260
      4 C          64.9727   83.6647   13.8556 C.3     1  UNL1        0.0024
      5 C          64.0448   84.6862   13.2678 C.3     1  UNL1        0.0247
      6 C          64.4820   83.6289   12.2976 C.3     1  UNL1        0.0023
      7 C          63.9895   83.6609   10.8811 C.3     1  UNL1        0.0004
      8 C          63.0598   84.7501   10.4348 C.3     1  UNL1        0.0035
      9 C          62.6225   85.8073   11.4049 C.3     1  UNL1        0.0010
     10 C          61.6928   86.8965   10.9585 C.3     1  UNL1        0.0084
     11 C          61.2003   86.9285    9.5420 C.3     1  UNL1        0.0224
     12 C          61.6376   85.8713    8.5719 C.2     1  UNL1       -0.0420
     13 C          61.1451   85.9033    7.1554 C.2     1  UNL1        0.0289
     14 C          61.5823   84.8461    6.1853 C.2     1  UNL1        0.1725
     15 O          61.0898   84.8781    4.7688 O.2     1  UNL1       -0.2914
     16 C          62.5121   83.7569    6.6317 C.3     1  UNL1        0.0694
     17 C          63.0045   83.7249    8.0482 C.3     1  UNL1        0.0118
     18 C          62.5673   84.7821    9.0182 C.3     1  UNL1        0.0157
     19 C          63.4970   83.6929    9.4646 C.3     1  UNL1        0.0041
     20 C          63.1150   85.7753   12.8214 C.3     1  UNL1        0.0024
     21 C          62.8581   86.6748   13.9939 C.3     1  UNL1        0.0026
     22 C          63.6290   86.1416   15.1649 C.3     1  UNL1        0.0292
     23 C          64.3624   84.9125   14.7161 C.3     1  UNL1        0.1104
     24 O          65.2565   84.0595   15.5665 O.3     1  UNL1       -0.3845
     25 H          65.2925   84.4241   16.4646 H       1  UNL1        0.2103
     26 C          63.2066   90.1548   11.3386 C.3     1  UNL1        0.0260
     27 C          64.1371   91.3274   11.4363 C.3     1  UNL1        0.0084
     28 C          64.6161   92.0106   10.1899 C.3     1  UNL1        0.0224
     29 C          65.5465   93.1831   10.2877 C.2     1  UNL1       -0.0420
     30 C          66.0256   93.8664    9.0412 C.2     1  UNL1        0.0289
     31 C          66.9560   95.0389    9.1390 C.2     1  UNL1        0.1725
     32 O          67.4351   95.7222    7.8926 O.2     1  UNL1       -0.2914
     33 C          67.4073   95.5282   10.4833 C.3     1  UNL1        0.0694
     34 C          66.9282   94.8449   11.7297 C.3     1  UNL1        0.0118
     35 C          65.9978   93.6724   11.6319 C.3     1  UNL1        0.0157
     36 C          66.4491   94.1616   12.9762 C.3     1  UNL1        0.0041
     37 C          65.5188   92.9891   12.8784 C.3     1  UNL1        0.0035
     38 C          65.9701   93.4784   14.2226 C.3     1  UNL1        0.0004
     39 C          65.4910   92.7951   15.4690 C.3     1  UNL1        0.0023
     40 C          64.5606   91.6225   15.3713 C.3     1  UNL1        0.0247
     41 C          64.9244   91.9971   16.7775 C.3     1  UNL1        0.0024
     42 C          63.9261   90.7547   16.4174 C.3     1  UNL1        0.1104
     43 O          64.1039   90.8889   17.9007 O.3     1  UNL1       -0.3845
     44 C          63.0827   89.7292   15.7197 C.3     1  UNL1        0.0292
     45 C          63.1959   89.9631   14.2424 C.3     1  UNL1        0.0026
     46 C          64.1093   91.1333   14.0270 C.3     1  UNL1        0.0024
     47 C          64.5884   91.8166   12.7806 C.3     1  UNL1        0.0010
     48 H          64.6991   91.6313   18.0892 H       1  UNL1        0.2103
@<TRIPOS>BOND
     1     5     4    1
     2     5     6    1
     3     6     7    1
     4     8     7    1
     5     8     9    1
     6     9    10    1
     7    10     3    1
     8     3     1    1
     9     1     2    2
    10     2    26    1
    11    27    26    1
    12    27    28    1
    13    28    29    1
    14    29    30    2
    15    30    31    1
    16    31    32    2
    17    31    33    1
    18    33    34    1
    19    34    35    1
    20    35    36    1
    21    35    37    1
    22    37    38    1
    23    38    39    1
    24    39    40    1
    25    40    41    1
    26    40    42    1
    27    42    43    1
    28    42    44    1
    29    44    45    1
    30    46    45    1
    31    46    47    1
    32    10    11    1
    33    11    12    1
    34    12    13    2
    35    13    14    1
    36    14    15    2
    37    14    16    1
    38    16    17    1
    39    17    18    1
    40    18    19    1
    41     9    20    1
    42    20    21    1
    43    21    22    1
    44    22    23    1
    45    23    24    1
    46    20     5    1
    47    23     5    1
    48    18     8    1
    49    47    27    1
    50    18    12    1
    51    35    29    1
    52    47    37    1
    53    46    40    1
    54    43    48    1
    55    24    25    1
