@<TRIPOS>MOLECULE
*****
 34 36 0 0 0
SMALL
GASTEIGER

@<TRIPOS>ATOM
      1 N          63.7593   87.8460   13.5466 N.ar    1  UNL1       -0.2869
      2 C          63.3812   88.8695   12.5173 C.ar    1  UNL1        0.2573
      3 O          63.6852   90.3192   12.7542 O.2     1  UNL1       -0.2673
      4 C          62.6992   88.4434   11.2511 C.ar    1  UNL1        0.0366
      5 C          62.3953   86.9938   11.0142 C.ar    1  UNL1        0.0050
      6 C          62.7733   85.9702   12.0435 C.ar    1  UNL1        0.0158
      7 C          62.4694   84.5206   11.8065 C.ar    1  UNL1        0.0053
      8 C          62.8474   83.4971   12.8358 C.ar    1  UNL1        0.0715
      9 C          63.5294   83.9232   14.1020 C.ar    1  UNL1        0.0053
     10 C          63.8334   85.3728   14.3390 C.ar    1  UNL1        0.0172
     11 C          63.4553   86.3963   13.3097 C.ar    1  UNL1        0.0629
     12 C          61.7133   86.5677    9.7479 C.ar    1  UNL1        0.0344
     13 C          62.4758   85.8049    8.7055 C.ar    1  UNL1        0.0144
     14 C          61.7938   85.3788    7.4392 C.ar    1  UNL1        0.0579
     15 CL         62.5564   84.6161    6.3967 Cl      1  UNL1       -0.0822
     16 C          60.3493   85.7154    7.2155 C.ar    1  UNL1        0.0145
     17 C          59.5867   86.4782    8.2580 C.ar    1  UNL1        0.0375
     18 C          60.2687   86.9043    9.5242 C.ar    1  UNL1        0.1336
     19 O          59.5062   87.6670   10.5667 O.3     1  UNL1       -0.5055
     20 H          58.6039   87.8773   10.4269 H       1  UNL1        0.2922
     21 C          62.5435   82.0473   12.5989 C.3     1  UNL1        0.4186
     22 F          62.2395   80.5977   12.3621 F       1  UNL1       -0.1659
     23 F          62.0838   81.9115   14.0202 F       1  UNL1       -0.1659
     24 F          63.0032   82.1832   11.1776 F       1  UNL1       -0.1659
     25 C          64.4413   88.2721   14.8128 C.3     1  UNL1        0.1938
     26 N          63.4497   90.4636   15.7948 N.am    1  UNL1       -0.3272
     27 C          63.6635   88.9815   15.8815 C.2     1  UNL1        0.2426
     28 O          63.0995   88.2087   17.0368 O.2     1  UNL1       -0.2732
     29 H          62.9393   90.9292   16.4961 H       1  UNL1        0.1450
     30 H          63.8199   90.9708   15.0365 H       1  UNL1        0.1450
     31 C          62.3212   89.4670   10.2218 C.3     1  UNL1        0.0629
     32 C          61.2418   90.4655   10.5182 C.3     1  UNL1        0.1420
     33 O          59.9937   90.4897    9.6865 O.3     1  UNL1       -0.3816
     34 H          60.2146   90.7538    8.7796 H       1  UNL1        0.2105
@<TRIPOS>BOND
     1    26    27   am
     2    27    28    2
     3    27    25    1
     4    25     1    1
     5     1     2   ar
     6     2     3    2
     7     2     4   ar
     8     4    31    1
     9    31    32    1
    10    32    33    1
    11     4     5   ar
    12     5    12    1
    13    12    13   ar
    14    13    14   ar
    15    14    15    1
    16    14    16   ar
    17    16    17   ar
    18    17    18   ar
    19    18    19    1
    20     5     6   ar
    21     6     7   ar
    22     7     8   ar
    23     8    21    1
    24    21    22    1
    25    21    23    1
    26    21    24    1
    27     8     9   ar
    28     9    10   ar
    29    10    11   ar
    30    11     1   ar
    31    18    12   ar
    32    11     6   ar
    33    26    29    1
    34    26    30    1
    35    33    34    1
    36    19    20    1
@<TRIPOS>MOLECULE
*****
 34 36 0 0 0
SMALL
GASTEIGER

@<TRIPOS>ATOM
      1 N          63.5262   88.1994   12.8527 N.ar    1  UNL1       -0.2869
      2 C          64.0664   87.3219   13.9426 C.ar    1  UNL1        0.2573
      3 O          64.7597   87.9338   15.1238 O.2     1  UNL1       -0.2673
      4 C          63.9134   85.8325   13.8515 C.ar    1  UNL1        0.0366
      5 C          63.2202   85.2207   12.6705 C.ar    1  UNL1        0.0050
      6 C          62.6799   86.0982   11.5804 C.ar    1  UNL1        0.0158
      7 C          61.9867   85.4863   10.3993 C.ar    1  UNL1        0.0053
      8 C          61.4465   86.3638    9.3093 C.ar    1  UNL1        0.0715
      9 C          61.5995   87.8532    9.4004 C.ar    1  UNL1        0.0053
     10 C          62.2927   88.4651   10.5815 C.ar    1  UNL1        0.0172
     11 C          62.8329   87.5876   11.6715 C.ar    1  UNL1        0.0629
     12 C          63.0672   83.7313   12.5794 C.ar    1  UNL1        0.0344
     13 C          62.0218   83.0333   13.3978 C.ar    1  UNL1        0.0144
     14 C          61.8688   81.5439   13.3067 C.ar    1  UNL1        0.0579
     15 CL         60.8233   80.8459   14.1252 Cl      1  UNL1       -0.0822
     16 C          62.7612   80.7525   12.3972 C.ar    1  UNL1        0.0145
     17 C          63.8066   81.4505   11.5787 C.ar    1  UNL1        0.0375
     18 C          63.9597   82.9399   11.6698 C.ar    1  UNL1        0.1336
     19 O          65.0051   83.6379   10.8514 O.3     1  UNL1       -0.5055
     20 H          65.5625   83.1435   10.2832 H       1  UNL1        0.2922
     21 C          60.7532   85.7519    8.1282 C.3     1  UNL1        0.4186
     22 F          60.0601   85.1400    6.9471 F       1  UNL1       -0.1659
     23 F          62.0584   85.1820    7.6574 F       1  UNL1       -0.1659
     24 F          59.4481   86.3218    8.5989 F       1  UNL1       -0.1659
     25 C          63.6792   89.6888   12.9437 C.3     1  UNL1        0.1938
     26 N          62.4239   89.8280   15.2142 N.am    1  UNL1       -0.3272
     27 C          63.4188   90.3915   14.2432 C.2     1  UNL1        0.2426
     28 O          64.1531   91.6574   14.5717 O.2     1  UNL1       -0.2732
     29 H          62.2530   90.2891   16.0671 H       1  UNL1        0.1450
     30 H          61.9419   88.9971   14.9986 H       1  UNL1        0.1450
     31 C          64.4537   84.9550   14.9416 C.3     1  UNL1        0.0629
     32 C          63.6509   84.7270   16.1880 C.3     1  UNL1        0.1420
     33 O          62.2860   85.3343   16.3225 O.3     1  UNL1       -0.3816
     34 H          62.3637   86.3007   16.3540 H       1  UNL1        0.2105
@<TRIPOS>BOND
     1    26    27   am
     2    27    28    2
     3    27    25    1
     4    25     1    1
     5     1     2   ar
     6     2     3    2
     7     2     4   ar
     8     4    31    1
     9    31    32    1
    10    32    33    1
    11     4     5   ar
    12     5    12    1
    13    12    13   ar
    14    13    14   ar
    15    14    15    1
    16    14    16   ar
    17    16    17   ar
    18    17    18   ar
    19    18    19    1
    20     5     6   ar
    21     6     7   ar
    22     7     8   ar
    23     8    21    1
    24    21    22    1
    25    21    23    1
    26    21    24    1
    27     8     9   ar
    28     9    10   ar
    29    10    11   ar
    30    11     1   ar
    31    18    12   ar
    32    11     6   ar
    33    26    29    1
    34    26    30    1
    35    33    34    1
    36    19    20    1
@<TRIPOS>MOLECULE
*****
 34 36 0 0 0
SMALL
GASTEIGER

@<TRIPOS>ATOM
      1 N          63.6481   86.0003   14.1710 N.ar    1  UNL1       -0.2869
      2 C          63.3824   87.2316   13.3567 C.ar    1  UNL1        0.2573
      3 O          63.6029   88.5890   13.9558 O.2     1  UNL1       -0.2673
      4 C          62.8962   87.1057   11.9433 C.ar    1  UNL1        0.0366
      5 C          62.6756   85.7484   11.3441 C.ar    1  UNL1        0.0050
      6 C          62.9413   84.5169   12.1584 C.ar    1  UNL1        0.0158
      7 C          62.7208   83.1596   11.5593 C.ar    1  UNL1        0.0053
      8 C          62.9864   81.9282   12.3736 C.ar    1  UNL1        0.0715
      9 C          63.4727   82.0542   13.7870 C.ar    1  UNL1        0.0053
     10 C          63.6932   83.4115   14.3861 C.ar    1  UNL1        0.0172
     11 C          63.4275   84.6428   13.5718 C.ar    1  UNL1        0.0629
     12 C          62.1894   85.6224    9.9307 C.ar    1  UNL1        0.0344
     13 C          60.8567   86.1907    9.5426 C.ar    1  UNL1        0.0144
     14 C          60.3704   86.0648    8.1292 C.ar    1  UNL1        0.0579
     15 CL         59.0376   86.6331    7.7411 Cl      1  UNL1       -0.0822
     16 C          61.2170   85.3705    7.1039 C.ar    1  UNL1        0.0145
     17 C          62.5498   84.8021    7.4920 C.ar    1  UNL1        0.0375
     18 C          63.0361   84.9281    8.9054 C.ar    1  UNL1        0.1336
     19 O          64.3688   84.3597    9.2935 O.3     1  UNL1       -0.5055
     20 H          64.8977   83.9260    8.6531 H       1  UNL1        0.2922
     21 C          62.7659   80.5708   11.7745 C.3     1  UNL1        0.4186
     22 F          62.5454   79.2135   11.1754 F       1  UNL1       -0.1659
     23 F          63.1096   81.1133   10.4190 F       1  UNL1       -0.1659
     24 F          62.4222   80.0283   13.1300 F       1  UNL1       -0.1659
     25 C          64.1343   86.1262   15.5844 C.3     1  UNL1        0.1938
     26 N          63.0396   88.0545   16.9385 N.am    1  UNL1       -0.3272
     27 C          63.1980   86.5889   16.6612 C.2     1  UNL1        0.2426
     28 O          62.4202   85.5860   17.4605 O.2     1  UNL1       -0.2732
     29 H          62.4252   88.3581   17.6452 H       1  UNL1        0.1450
     30 H          63.5502   88.7127   16.4139 H       1  UNL1        0.1450
     31 C          62.6305   88.3371   11.1290 C.3     1  UNL1        0.0629
     32 C          61.4473   89.2036   11.4438 C.3     1  UNL1        0.1420
     33 O          60.2124   88.5981   12.0422 O.3     1  UNL1       -0.3816
     34 H          59.8054   87.9940   11.4016 H       1  UNL1        0.2105
@<TRIPOS>BOND
     1    26    27   am
     2    27    28    2
     3    27    25    1
     4    25     1    1
     5     1     2   ar
     6     2     3    2
     7     2     4   ar
     8     4    31    1
     9    31    32    1
    10    32    33    1
    11     4     5   ar
    12     5    12    1
    13    12    13   ar
    14    13    14   ar
    15    14    15    1
    16    14    16   ar
    17    16    17   ar
    18    17    18   ar
    19    18    19    1
    20     5     6   ar
    21     6     7   ar
    22     7     8   ar
    23     8    21    1
    24    21    22    1
    25    21    23    1
    26    21    24    1
    27     8     9   ar
    28     9    10   ar
    29    10    11   ar
    30    11     1   ar
    31    18    12   ar
    32    11     6   ar
    33    26    29    1
    34    26    30    1
    35    33    34    1
    36    19    20    1
@<TRIPOS>MOLECULE
*****
 34 36 0 0 0
SMALL
GASTEIGER

@<TRIPOS>ATOM
      1 N          63.2906   89.3028   12.7245 N.ar    1  UNL1       -0.2869
      2 C          63.9918   88.4786   13.7633 C.ar    1  UNL1        0.2573
      3 O          64.7680   89.1516   14.8564 O.2     1  UNL1       -0.2673
      4 C          63.9169   86.9815   13.7090 C.ar    1  UNL1        0.0366
      5 C          63.1408   86.3085   12.6160 C.ar    1  UNL1        0.0050
      6 C          62.4396   87.1327   11.5772 C.ar    1  UNL1        0.0158
      7 C          61.6635   86.4597   10.4841 C.ar    1  UNL1        0.0053
      8 C          60.9623   87.2839    9.4454 C.ar    1  UNL1        0.0715
      9 C          61.0372   88.7810    9.4997 C.ar    1  UNL1        0.0053
     10 C          61.8133   89.4540   10.5927 C.ar    1  UNL1        0.0172
     11 C          62.5145   88.6298   11.6314 C.ar    1  UNL1        0.0629
     12 C          63.0659   84.8114   12.5617 C.ar    1  UNL1        0.0344
     13 C          63.7013   84.0694   11.4234 C.ar    1  UNL1        0.0144
     14 C          63.6264   82.5723   11.3691 C.ar    1  UNL1        0.0579
     15 CL         64.2619   81.8303   10.2308 Cl      1  UNL1       -0.0822
     16 C          62.9161   81.8171   12.4531 C.ar    1  UNL1        0.0145
     17 C          62.2807   82.5590   13.5915 C.ar    1  UNL1        0.0375
     18 C          62.3556   84.0562   13.6458 C.ar    1  UNL1        0.1336
     19 O          61.7202   84.7981   14.7840 O.3     1  UNL1       -0.5055
     20 H          61.2764   84.3264   15.4612 H       1  UNL1        0.2922
     21 C          60.1862   86.6109    8.3523 C.3     1  UNL1        0.4186
     22 F          59.4101   85.9380    7.2592 F       1  UNL1       -0.1659
     23 F          61.3526   85.7079    8.0801 F       1  UNL1       -0.1659
     24 F          59.0198   87.5139    8.6244 F       1  UNL1       -0.1659
     25 C          63.3655   90.7999   12.7788 C.3     1  UNL1        0.1938
     26 N          64.5931   91.9373   10.7915 N.am    1  UNL1       -0.3272
     27 C          64.5665   91.5112   12.2294 C.2     1  UNL1        0.2426
     28 O          65.7409   91.7963   13.1180 O.2     1  UNL1       -0.2732
     29 H          65.3813   92.4041   10.4309 H       1  UNL1        0.1450
     30 H          63.8223   91.7502   10.2083 H       1  UNL1        0.1450
     31 C          64.6182   86.1573   14.7478 C.3     1  UNL1        0.0629
     32 C          64.0525   86.0575   16.1335 C.3     1  UNL1        0.1420
     33 O          63.0018   87.0276   16.5862 O.3     1  UNL1       -0.3816
     34 H          63.3819   87.9189   16.6298 H       1  UNL1        0.2105
@<TRIPOS>BOND
     1    26    27   am
     2    27    28    2
     3    27    25    1
     4    25     1    1
     5     1     2   ar
     6     2     3    2
     7     2     4   ar
     8     4    31    1
     9    31    32    1
    10    32    33    1
    11     4     5   ar
    12     5    12    1
    13    12    13   ar
    14    13    14   ar
    15    14    15    1
    16    14    16   ar
    17    16    17   ar
    18    17    18   ar
    19    18    19    1
    20     5     6   ar
    21     6     7   ar
    22     7     8   ar
    23     8    21    1
    24    21    22    1
    25    21    23    1
    26    21    24    1
    27     8     9   ar
    28     9    10   ar
    29    10    11   ar
    30    11     1   ar
    31    18    12   ar
    32    11     6   ar
    33    26    29    1
    34    26    30    1
    35    33    34    1
    36    19    20    1
@<TRIPOS>MOLECULE
*****
 34 36 0 0 0
SMALL
GASTEIGER

@<TRIPOS>ATOM
      1 N          64.1688   89.5032   13.8486 N.ar    1  UNL1       -0.2869
      2 C          63.5421   90.3206   12.7582 C.ar    1  UNL1        0.2573
      3 O          63.6815   91.8142   12.7659 O.2     1  UNL1       -0.2673
      4 C          62.7759   89.6446   11.6600 C.ar    1  UNL1        0.0366
      5 C          62.6364   88.1512   11.6522 C.ar    1  UNL1        0.0050
      6 C          63.2631   87.3337   12.7427 C.ar    1  UNL1        0.0158
      7 C          63.1236   85.8402   12.7349 C.ar    1  UNL1        0.0053
      8 C          63.7503   85.0228   13.8253 C.ar    1  UNL1        0.0715
      9 C          64.5165   85.6988   14.9235 C.ar    1  UNL1        0.0053
     10 C          64.6560   87.1922   14.9312 C.ar    1  UNL1        0.0172
     11 C          64.0293   88.0097   13.8408 C.ar    1  UNL1        0.0629
     12 C          61.8702   87.4752   10.5541 C.ar    1  UNL1        0.0344
     13 C          62.5993   86.6908    9.5038 C.ar    1  UNL1        0.0144
     14 C          61.8331   86.0148    8.4056 C.ar    1  UNL1        0.0579
     15 CL         62.5623   85.2304    7.3553 Cl      1  UNL1       -0.0822
     16 C          60.3378   86.1231    8.3578 C.ar    1  UNL1        0.0145
     17 C          59.6086   86.9075    9.4081 C.ar    1  UNL1        0.0375
     18 C          60.3748   87.5835   10.5063 C.ar    1  UNL1        0.1336
     19 O          59.6457   88.3679   11.5566 O.3     1  UNL1       -0.5055
     20 H          58.7117   88.4356   11.5267 H       1  UNL1        0.2922
     21 C          63.6109   83.5292   13.8176 C.3     1  UNL1        0.4186
     22 F          63.4714   82.0358   13.8099 F       1  UNL1       -0.1659
     23 F          62.8272   83.5959   15.0948 F       1  UNL1       -0.1659
     24 F          64.3945   83.4626   12.5403 F       1  UNL1       -0.1659
     25 C          64.9350   90.1792   14.9467 C.3     1  UNL1        0.1938
     26 N          64.7765   92.3193   16.4113 N.am    1  UNL1       -0.3272
     27 C          64.2102   91.0023   15.9702 C.2     1  UNL1        0.2426
     28 O          62.9192   90.5082   16.5525 O.2     1  UNL1       -0.2732
     29 H          64.3009   92.8595   17.0830 H       1  UNL1        0.1450
     30 H          65.6239   92.6436   16.0291 H       1  UNL1        0.1450
     31 C          62.1492   90.4621   10.5696 C.3     1  UNL1        0.0629
     32 C          63.0159   91.2111    9.6012 C.3     1  UNL1        0.1420
     33 O          63.9157   92.3063   10.0920 O.3     1  UNL1       -0.3816
     34 H          63.3779   93.0397   10.4294 H       1  UNL1        0.2105
@<TRIPOS>BOND
     1    26    27   am
     2    27    28    2
     3    27    25    1
     4    25     1    1
     5     1     2   ar
     6     2     3    2
     7     2     4   ar
     8     4    31    1
     9    31    32    1
    10    32    33    1
    11     4     5   ar
    12     5    12    1
    13    12    13   ar
    14    13    14   ar
    15    14    15    1
    16    14    16   ar
    17    16    17   ar
    18    17    18   ar
    19    18    19    1
    20     5     6   ar
    21     6     7   ar
    22     7     8   ar
    23     8    21    1
    24    21    22    1
    25    21    23    1
    26    21    24    1
    27     8     9   ar
    28     9    10   ar
    29    10    11   ar
    30    11     1   ar
    31    18    12   ar
    32    11     6   ar
    33    26    29    1
    34    26    30    1
    35    33    34    1
    36    19    20    1
@<TRIPOS>MOLECULE
*****
 34 36 0 0 0
SMALL
GASTEIGER

@<TRIPOS>ATOM
      1 N          63.6199   86.0659   14.2122 N.ar    1  UNL1       -0.2869
      2 C          63.2394   84.7203   13.6694 C.ar    1  UNL1        0.2573
      3 O          63.3561   83.5016   14.5361 O.2     1  UNL1       -0.2673
      4 C          62.7421   84.5935   12.2599 C.ar    1  UNL1        0.0366
      5 C          62.6253   85.8121   11.3932 C.ar    1  UNL1        0.0050
      6 C          63.0059   87.1578   11.9360 C.ar    1  UNL1        0.0158
      7 C          62.8891   88.3764   11.0693 C.ar    1  UNL1        0.0053
      8 C          63.2696   89.7220   11.6122 C.ar    1  UNL1        0.0715
      9 C          63.7669   89.8488   13.0216 C.ar    1  UNL1        0.0053
     10 C          63.8836   88.6302   13.8883 C.ar    1  UNL1        0.0172
     11 C          63.5031   87.2846   13.3455 C.ar    1  UNL1        0.0629
     12 C          62.1281   85.6853    9.9837 C.ar    1  UNL1        0.0344
     13 C          60.7920   86.2528    9.6058 C.ar    1  UNL1        0.0144
     14 C          60.2948   86.1259    8.1964 C.ar    1  UNL1        0.0579
     15 CL         58.9587   86.6935    7.8185 Cl      1  UNL1       -0.0822
     16 C          61.1336   85.4315    7.1648 C.ar    1  UNL1        0.0145
     17 C          62.4697   84.8639    7.5427 C.ar    1  UNL1        0.0375
     18 C          62.9669   84.9908    8.9521 C.ar    1  UNL1        0.1336
     19 O          64.3030   84.4233    9.3300 O.3     1  UNL1       -0.5055
     20 H          64.8270   83.9895    8.6856 H       1  UNL1        0.2922
     21 C          63.1529   90.9407   10.7455 C.3     1  UNL1        0.4186
     22 F          63.0361   92.1594    9.8788 F       1  UNL1       -0.1659
     23 F          62.2625   90.1857    9.8037 F       1  UNL1       -0.1659
     24 F          64.0433   91.6958   11.6872 F       1  UNL1       -0.1659
     25 C          64.1171   86.1927   15.6217 C.3     1  UNL1        0.1938
     26 N          63.0621   87.8494   17.3223 N.am    1  UNL1       -0.3272
     27 C          63.1517   86.4720   16.7353 C.2     1  UNL1        0.2426
     28 O          62.2761   85.3739   17.2618 O.2     1  UNL1       -0.2732
     29 H          62.4285   88.0327   18.0532 H       1  UNL1        0.1450
     30 H          63.6368   88.5702   16.9768 H       1  UNL1        0.1450
     31 C          62.3616   83.2478   11.7171 C.3     1  UNL1        0.0629
     32 C          63.4119   82.1963   11.5150 C.3     1  UNL1        0.1420
     33 O          64.8536   82.5907   11.3892 O.3     1  UNL1       -0.3816
     34 H          64.9787   83.1036   10.5754 H       1  UNL1        0.2105
@<TRIPOS>BOND
     1    26    27   am
     2    27    28    2
     3    27    25    1
     4    25     1    1
     5     1     2   ar
     6     2     3    2
     7     2     4   ar
     8     4    31    1
     9    31    32    1
    10    32    33    1
    11     4     5   ar
    12     5    12    1
    13    12    13   ar
    14    13    14   ar
    15    14    15    1
    16    14    16   ar
    17    16    17   ar
    18    17    18   ar
    19    18    19    1
    20     5     6   ar
    21     6     7   ar
    22     7     8   ar
    23     8    21    1
    24    21    22    1
    25    21    23    1
    26    21    24    1
    27     8     9   ar
    28     9    10   ar
    29    10    11   ar
    30    11     1   ar
    31    18    12   ar
    32    11     6   ar
    33    26    29    1
    34    26    30    1
    35    33    34    1
    36    19    20    1
