@<TRIPOS>MOLECULE
*****
 36 40 0 0 0
SMALL
GASTEIGER

@<TRIPOS>ATOM
      1 C          63.9822   90.8390   11.7059 C.ar    1  UNL1        0.1632
      2 N          64.2921   90.6015   13.1542 N.ar    1  UNL1       -0.2310
      3 C          65.2356   91.5151   13.8789 C.ar    1  UNL1        0.0625
      4 C          65.8692   92.6661   13.1554 C.ar    1  UNL1        0.0410
      5 C          65.5593   92.9037   11.7071 C.ar    1  UNL1        0.1320
      6 N          64.6158   91.9901   10.9823 N.ar    1  UNL1       -0.2122
      7 C          66.8127   93.5797   13.8802 C.3     1  UNL1        0.1017
      8 C          67.6523   94.2007   14.9569 C.3     1  UNL1        0.0262
      9 C          67.4653   93.3990   16.2108 C.3     1  UNL1        0.0223
     10 C          66.5103   92.2824   15.9090 C.3     1  UNL1        0.0815
     11 C          65.5455   91.2775   15.3272 C.3     1  UNL1        0.0654
     12 N          66.1069   92.3940   14.4686 N.am    1  UNL1       -0.2785
     13 C          65.1634   91.4805   13.7438 C.2     1  UNL1        0.2263
     14 C          64.5298   90.3295   14.4673 C.3     1  UNL1        0.0948
     15 O          64.8535   91.7181   12.2955 O.2     1  UNL1       -0.2748
     16 N          66.1930   94.0548   10.9836 N.pl3   1  UNL1       -0.2900
     17 C          65.7152   95.4540   11.2365 C.3     1  UNL1        0.1242
     18 C          66.3488   96.6051   10.5130 C.3     1  UNL1        0.1636
     19 O          67.4602   96.3570    9.5366 O.3     1  UNL1       -0.3502
     20 C          67.9379   94.9578    9.2836 C.3     1  UNL1        0.1618
     21 C          67.3043   93.8067   10.0072 C.3     1  UNL1        0.1038
     22 C          67.7820   92.4075    9.7542 C.3     1  UNL1        0.0241
     23 C          61.1517   88.0983    9.5318 C.ar    1  UNL1        0.0516
     24 C          61.9910   87.5702   10.6574 C.ar    1  UNL1        0.0148
     25 C          62.9345   88.4838   11.3820 C.ar    1  UNL1        0.0043
     26 C          63.0387   89.9255   10.9812 C.ar    1  UNL1        0.0359
     27 C          62.1995   90.4536    9.8556 C.ar    1  UNL1        0.0043
     28 C          61.2561   89.5400    9.1310 C.ar    1  UNL1        0.0148
     29 N          59.8027   85.1903    7.1922 N.am    1  UNL1       -0.2887
     30 C          60.7462   86.1039    7.9168 C.2     1  UNL1        0.3045
     31 O          62.2276   85.9367    7.7512 O.2     1  UNL1       -0.2525
     32 N          60.2083   87.1847    8.8071 N.am    1  UNL1       -0.2683
     33 H          58.8304   85.3001    7.3009 H       1  UNL1        0.1510
     34 H          59.2359   87.2944    8.9158 H       1  UNL1        0.1564
     35 C          61.6813   84.2733    5.6495 C.3     1  UNL1        0.0230
     36 C          60.3406   84.1095    6.3020 C.3     1  UNL1        0.0910
@<TRIPOS>BOND
     1    35    36    1
     2    36    29    1
     3    29    30   am
     4    30    31    2
     5    30    32   am
     6    32    23    1
     7    23    24   ar
     8    24    25   ar
     9    25    26   ar
    10    26     1    1
    11     1     2   ar
    12     2     3   ar
    13     3     4   ar
    14     4     5   ar
    15     5    16    1
    16    16    17    1
    17    17    18    1
    18    18    19    1
    19    19    20    1
    20    20    21    1
    21    21    22    1
    22     5     6   ar
    23     4     7    1
    24     7     8    1
    25     8     9    1
    26    10     9    1
    27    10    11    1
    28    10    12    1
    29    12    13   am
    30    13    14    1
    31    13    15    2
    32    26    27   ar
    33    27    28   ar
    34    28    23   ar
    35     6     1   ar
    36    12     7    1
    37    11     3    1
    38    21    16    1
    39    29    33    1
    40    32    34    1
@<TRIPOS>MOLECULE
*****
 36 40 0 0 0
SMALL
GASTEIGER

@<TRIPOS>ATOM
      1 C          62.8404   89.0296   11.9430 C.ar    1  UNL1        0.1632
      2 N          61.8466   89.6033   10.9770 N.ar    1  UNL1       -0.2310
      3 C          61.1255   88.7019   10.0190 C.ar    1  UNL1        0.0625
      4 C          61.3983   87.2270   10.0270 C.ar    1  UNL1        0.0410
      5 C          62.3921   86.6533   10.9930 C.ar    1  UNL1        0.1320
      6 N          63.1132   87.5547   11.9510 N.ar    1  UNL1       -0.2122
      7 C          60.6772   86.3257    9.0690 C.3     1  UNL1        0.1017
      8 C          59.7655   85.8340    7.9841 C.3     1  UNL1        0.0262
      9 C          59.0342   87.0168    7.4218 C.3     1  UNL1        0.0223
     10 C          59.4940   88.2395    8.1591 C.3     1  UNL1        0.0815
     11 C          60.1316   89.2756    9.0530 C.3     1  UNL1        0.0654
     12 N          60.5094   87.8124    9.1772 N.am    1  UNL1       -0.2785
     13 C          61.2305   88.7136   10.1352 C.2     1  UNL1        0.2263
     14 C          60.9577   90.1886   10.1271 C.3     1  UNL1        0.0948
     15 O          62.2243   88.1400   11.1012 O.2     1  UNL1       -0.2748
     16 N          62.6649   85.1783   11.0011 N.pl3   1  UNL1       -0.2900
     17 C          62.3714   84.3680   12.2287 C.3     1  UNL1        0.1242
     18 C          62.6441   82.8931   12.2368 C.3     1  UNL1        0.1636
     19 O          63.2105   82.2285   11.0171 O.3     1  UNL1       -0.3502
     20 C          63.5040   83.0388    9.7894 C.3     1  UNL1        0.1618
     21 C          63.2313   84.5137    9.7814 C.3     1  UNL1        0.1038
     22 C          63.5248   85.3240    8.5537 C.3     1  UNL1        0.0241
     23 C          65.0035   91.7337   14.8169 C.ar    1  UNL1        0.0516
     24 C          65.0103   92.0405   13.3485 C.ar    1  UNL1        0.0148
     25 C          64.2892   91.1392   12.3906 C.ar    1  UNL1        0.0043
     26 C          63.5614   89.9309   12.9010 C.ar    1  UNL1        0.0359
     27 C          63.5546   89.6240   14.3692 C.ar    1  UNL1        0.0043
     28 C          64.2757   90.5254   15.3271 C.ar    1  UNL1        0.0148
     29 N          67.8045   94.0675   16.3845 N.am    1  UNL1       -0.2887
     30 C          67.0836   93.1661   15.4266 C.2     1  UNL1        0.3045
     31 O          67.7215   92.7958   14.1205 O.2     1  UNL1       -0.2525
     32 N          65.7246   92.6350   15.7748 N.am    1  UNL1       -0.2683
     33 H          67.3858   94.3105   17.2417 H       1  UNL1        0.1510
     34 H          65.3059   92.8781   16.6320 H       1  UNL1        0.1564
     35 C          70.2769   93.6499   15.7040 C.3     1  UNL1        0.0230
     36 C          69.1635   94.5985   16.0363 C.3     1  UNL1        0.0910
@<TRIPOS>BOND
     1    35    36    1
     2    36    29    1
     3    29    30   am
     4    30    31    2
     5    30    32   am
     6    32    23    1
     7    23    24   ar
     8    24    25   ar
     9    25    26   ar
    10    26     1    1
    11     1     2   ar
    12     2     3   ar
    13     3     4   ar
    14     4     5   ar
    15     5    16    1
    16    16    17    1
    17    17    18    1
    18    18    19    1
    19    19    20    1
    20    20    21    1
    21    21    22    1
    22     5     6   ar
    23     4     7    1
    24     7     8    1
    25     8     9    1
    26    10     9    1
    27    10    11    1
    28    10    12    1
    29    12    13   am
    30    13    14    1
    31    13    15    2
    32    26    27   ar
    33    27    28   ar
    34    28    23   ar
    35     6     1   ar
    36    12     7    1
    37    11     3    1
    38    21    16    1
    39    29    33    1
    40    32    34    1
@<TRIPOS>MOLECULE
*****
 36 40 0 0 0
SMALL
GASTEIGER

@<TRIPOS>ATOM
      1 C          61.7358   86.7156   10.7046 C.ar    1  UNL1        0.1632
      2 N          62.4892   87.5521   11.6960 N.ar    1  UNL1       -0.2310
      3 C          63.2808   86.8922   12.7860 C.ar    1  UNL1        0.0625
      4 C          63.3190   85.3960   12.8846 C.ar    1  UNL1        0.0410
      5 C          62.5655   84.5595   11.8933 C.ar    1  UNL1        0.1320
      6 N          61.7739   85.2194   10.8033 N.ar    1  UNL1       -0.2122
      7 C          64.1105   84.7362   13.9746 C.3     1  UNL1        0.1017
      8 C          64.9910   84.5248   15.1705 C.3     1  UNL1        0.0262
      9 C          65.4040   85.8716   15.6858 C.3     1  UNL1        0.0223
     10 C          64.7788   86.9153   14.8085 C.3     1  UNL1        0.0815
     11 C          64.0343   87.7287   13.7773 C.3     1  UNL1        0.0654
     12 N          63.9794   86.2136   13.7508 N.am    1  UNL1       -0.2785
     13 C          63.1878   86.8734   12.6609 C.2     1  UNL1        0.2263
     14 C          63.1496   88.3696   12.5622 C.3     1  UNL1        0.0948
     15 O          62.4343   86.0369   11.6696 O.2     1  UNL1       -0.2748
     16 N          62.6036   83.0633   11.9920 N.pl3   1  UNL1       -0.2900
     17 C          61.8760   82.3661   13.1031 C.3     1  UNL1        0.1242
     18 C          61.9141   80.8699   13.2017 C.3     1  UNL1        0.1636
     19 O          62.6799   80.0708   12.1893 O.3     1  UNL1       -0.3502
     20 C          63.4076   80.7679   11.0782 C.3     1  UNL1        0.1618
     21 C          63.3694   82.2641   10.9796 C.3     1  UNL1        0.1038
     22 C          64.0971   82.9613    9.8685 C.3     1  UNL1        0.0241
     23 C          59.3610   88.6951    7.4348 C.ar    1  UNL1        0.0516
     24 C          59.4262   87.1986    7.5137 C.ar    1  UNL1        0.0148
     25 C          60.2178   86.5388    8.6037 C.ar    1  UNL1        0.0043
     26 C          60.9442   87.3755    9.6147 C.ar    1  UNL1        0.0359
     27 C          60.8791   88.8720    9.5359 C.ar    1  UNL1        0.0043
     28 C          60.0875   89.5318    8.4459 C.ar    1  UNL1        0.0148
     29 N          58.3545   91.1825    4.5108 N.am    1  UNL1       -0.2887
     30 C          59.1461   90.5228    5.6007 C.2     1  UNL1        0.3045
     31 O          60.5144   91.0309    5.9467 O.2     1  UNL1       -0.2525
     32 N          58.5694   89.3549    6.3448 N.am    1  UNL1       -0.2683
     33 H          57.4564   90.8490    4.2838 H       1  UNL1        0.1510
     34 H          57.6714   89.0215    6.1177 H       1  UNL1        0.1564
     35 C          60.3014   92.2533    3.1643 C.3     1  UNL1        0.0230
     36 C          58.9312   92.3504    3.7668 C.3     1  UNL1        0.0910
@<TRIPOS>BOND
     1    35    36    1
     2    36    29    1
     3    29    30   am
     4    30    31    2
     5    30    32   am
     6    32    23    1
     7    23    24   ar
     8    24    25   ar
     9    25    26   ar
    10    26     1    1
    11     1     2   ar
    12     2     3   ar
    13     3     4   ar
    14     4     5   ar
    15     5    16    1
    16    16    17    1
    17    17    18    1
    18    18    19    1
    19    19    20    1
    20    20    21    1
    21    21    22    1
    22     5     6   ar
    23     4     7    1
    24     7     8    1
    25     8     9    1
    26    10     9    1
    27    10    11    1
    28    10    12    1
    29    12    13   am
    30    13    14    1
    31    13    15    2
    32    26    27   ar
    33    27    28   ar
    34    28    23   ar
    35     6     1   ar
    36    12     7    1
    37    11     3    1
    38    21    16    1
    39    29    33    1
    40    32    34    1
@<TRIPOS>MOLECULE
*****
 36 40 0 0 0
SMALL
GASTEIGER

@<TRIPOS>ATOM
      1 C          58.9874   94.3261   -0.7269 C.ar    1  UNL1        0.1632
      2 N          59.2696   93.7159    0.6140 N.ar    1  UNL1       -0.2310
      3 C          60.6776   93.3714    1.0000 C.ar    1  UNL1        0.0625
      4 C          61.8034   93.6372    0.0451 C.ar    1  UNL1        0.0410
      5 C          61.5213   94.2474   -1.2959 C.ar    1  UNL1        0.1320
      6 N          60.1132   94.5918   -1.6818 N.ar    1  UNL1       -0.2122
      7 C          63.2114   93.2927    0.4311 C.3     1  UNL1        0.1017
      8 C          64.3999   92.8088    1.2077 C.3     1  UNL1        0.0262
      9 C          63.9128   92.3031    2.5332 C.3     1  UNL1        0.0223
     10 C          62.4232   92.4744    2.5758 C.3     1  UNL1        0.0815
     11 C          60.9598   92.7612    2.3409 C.3     1  UNL1        0.0654
     12 N          61.9897   93.0860    1.2765 N.am    1  UNL1       -0.2785
     13 C          60.5818   93.4305    0.8905 C.2     1  UNL1        0.2263
     14 C          59.4560   93.1647    1.8455 C.3     1  UNL1        0.0948
     15 O          60.2996   94.0407   -0.4504 O.2     1  UNL1       -0.2748
     16 N          62.6471   94.5131   -2.2508 N.pl3   1  UNL1       -0.2900
     17 C          63.0337   93.4749   -3.2620 C.3     1  UNL1        0.1242
     18 C          64.1595   93.7406   -4.2169 C.3     1  UNL1        0.1636
     19 O          64.8987   95.0446   -4.1606 O.3     1  UNL1       -0.3502
     20 C          64.5121   96.0829   -3.1494 C.3     1  UNL1        0.1618
     21 C          63.3863   95.8171   -2.1945 C.3     1  UNL1        0.1038
     22 C          62.9997   96.8554   -1.1833 C.3     1  UNL1        0.0241
     23 C          54.7635   95.3593   -1.8847 C.ar    1  UNL1        0.0516
     24 C          55.2015   93.9251   -1.8474 C.ar    1  UNL1        0.0148
     25 C          56.6095   93.5807   -1.4614 C.ar    1  UNL1        0.0043
     26 C          57.5795   94.6705   -1.1128 C.ar    1  UNL1        0.0359
     27 C          57.1415   96.1046   -1.1502 C.ar    1  UNL1        0.0043
     28 C          55.7335   96.4490   -1.5362 C.ar    1  UNL1        0.0148
     29 N          51.6174   96.3640   -4.0852 N.am    1  UNL1       -0.2887
     30 C          53.0254   96.0197   -3.6994 C.2     1  UNL1        0.3045
     31 O          54.1032   95.9914   -4.7421 O.2     1  UNL1       -0.2525
     32 N          53.3555   95.7036   -2.2707 N.am    1  UNL1       -0.2683
     33 H          50.9100   96.3826   -3.4008 H       1  UNL1        0.1510
     34 H          52.6480   95.7222   -1.5863 H       1  UNL1        0.1564
     35 C          50.2369   95.8876   -6.2340 C.3     1  UNL1        0.0230
     36 C          51.2873   96.6801   -5.5139 C.3     1  UNL1        0.0910
@<TRIPOS>BOND
     1    35    36    1
     2    36    29    1
     3    29    30   am
     4    30    31    2
     5    30    32   am
     6    32    23    1
     7    23    24   ar
     8    24    25   ar
     9    25    26   ar
    10    26     1    1
    11     1     2   ar
    12     2     3   ar
    13     3     4   ar
    14     4     5   ar
    15     5    16    1
    16    16    17    1
    17    17    18    1
    18    18    19    1
    19    19    20    1
    20    20    21    1
    21    21    22    1
    22     5     6   ar
    23     4     7    1
    24     7     8    1
    25     8     9    1
    26    10     9    1
    27    10    11    1
    28    10    12    1
    29    12    13   am
    30    13    14    1
    31    13    15    2
    32    26    27   ar
    33    27    28   ar
    34    28    23   ar
    35     6     1   ar
    36    12     7    1
    37    11     3    1
    38    21    16    1
    39    29    33    1
    40    32    34    1
@<TRIPOS>MOLECULE
*****
 36 40 0 0 0
SMALL
GASTEIGER

@<TRIPOS>ATOM
      1 C          63.6312   87.2937   13.3429 C.ar    1  UNL1        0.1632
      2 N          63.6375   86.1024   14.2545 N.ar    1  UNL1       -0.2310
      3 C          63.1851   84.7659   13.7452 C.ar    1  UNL1        0.0625
      4 C          62.7265   84.6207   12.3244 C.ar    1  UNL1        0.0410
      5 C          62.7202   85.8120   11.4129 C.ar    1  UNL1        0.1320
      6 N          63.1726   87.1485   11.9222 N.ar    1  UNL1       -0.2122
      7 C          62.2741   83.2843   11.8153 C.3     1  UNL1        0.1017
      8 C          61.9268   81.8267   11.7470 C.3     1  UNL1        0.0262
      9 C          62.1953   81.2228   13.0936 C.3     1  UNL1        0.0223
     10 C          62.7084   82.3071   13.9940 C.3     1  UNL1        0.0815
     11 C          63.1914   83.5747   14.6567 C.3     1  UNL1        0.0654
     12 N          62.7572   83.5813   13.2040 N.am    1  UNL1       -0.2785
     13 C          63.2095   84.9177   13.7131 C.2     1  UNL1        0.2263
     14 C          63.6682   85.0629   15.1339 C.3     1  UNL1        0.0948
     15 O          63.2033   86.1090   12.8016 O.2     1  UNL1       -0.2748
     16 N          62.2616   85.6668    9.9921 N.pl3   1  UNL1       -0.2900
     17 C          63.0742   84.8639    9.0201 C.3     1  UNL1        0.1242
     18 C          62.6155   84.7187    7.5993 C.3     1  UNL1        0.1636
     19 O          61.3443   85.3764    7.1507 O.3     1  UNL1       -0.3502
     20 C          60.5317   86.1794    8.1227 C.3     1  UNL1        0.1618
     21 C          60.9903   86.3246    9.5435 C.3     1  UNL1        0.1038
     22 C          60.1777   87.1275   10.5155 C.3     1  UNL1        0.0241
     23 C          64.9884   91.3030   14.8706 C.ar    1  UNL1        0.0516
     24 C          64.8479   91.0708   13.3953 C.ar    1  UNL1        0.0148
     25 C          64.3955   89.7343   12.8861 C.ar    1  UNL1        0.0043
     26 C          64.0836   88.6300   13.8522 C.ar    1  UNL1        0.0359
     27 C          64.2240   88.8622   15.3274 C.ar    1  UNL1        0.0043
     28 C          64.6764   90.1986   15.8366 C.ar    1  UNL1        0.0148
     29 N          67.3559   94.3042   15.9368 N.am    1  UNL1       -0.2887
     30 C          66.9036   92.9678   15.4277 C.2     1  UNL1        0.3045
     31 O          67.9140   91.9598   14.9663 O.2     1  UNL1       -0.2525
     32 N          65.4407   92.6394   15.3798 N.am    1  UNL1       -0.2683
     33 H          66.6926   94.9658   16.2396 H       1  UNL1        0.1510
     34 H          64.7775   93.3010   15.6826 H       1  UNL1        0.1564
     35 C          69.8329   93.5300   16.0584 C.3     1  UNL1        0.0230
     36 C          68.8187   94.6327   15.9847 C.3     1  UNL1        0.0910
@<TRIPOS>BOND
     1    35    36    1
     2    36    29    1
     3    29    30   am
     4    30    31    2
     5    30    32   am
     6    32    23    1
     7    23    24   ar
     8    24    25   ar
     9    25    26   ar
    10    26     1    1
    11     1     2   ar
    12     2     3   ar
    13     3     4   ar
    14     4     5   ar
    15     5    16    1
    16    16    17    1
    17    17    18    1
    18    18    19    1
    19    19    20    1
    20    20    21    1
    21    21    22    1
    22     5     6   ar
    23     4     7    1
    24     7     8    1
    25     8     9    1
    26    10     9    1
    27    10    11    1
    28    10    12    1
    29    12    13   am
    30    13    14    1
    31    13    15    2
    32    26    27   ar
    33    27    28   ar
    34    28    23   ar
    35     6     1   ar
    36    12     7    1
    37    11     3    1
    38    21    16    1
    39    29    33    1
    40    32    34    1
@<TRIPOS>MOLECULE
*****
 36 40 0 0 0
SMALL
GASTEIGER

@<TRIPOS>ATOM
      1 C          61.7414   86.5695   10.6214 C.ar    1  UNL1        0.1632
      2 N          62.4654   87.3685   11.6643 N.ar    1  UNL1       -0.2310
      3 C          63.2673   86.6694   12.7218 C.ar    1  UNL1        0.0625
      4 C          63.3452   85.1715   12.7365 C.ar    1  UNL1        0.0410
      5 C          62.6213   84.3726   11.6936 C.ar    1  UNL1        0.1320
      6 N          61.8193   85.0717   10.6360 N.ar    1  UNL1       -0.2122
      7 C          64.1472   84.4726   13.7940 C.3     1  UNL1        0.1017
      8 C          65.0251   84.2175   14.9832 C.3     1  UNL1        0.0262
      9 C          65.3980   85.5436   15.5768 C.3     1  UNL1        0.0223
     10 C          64.7507   86.6182   14.7545 C.3     1  UNL1        0.0815
     11 C          63.9913   87.4683   13.7647 C.3     1  UNL1        0.0654
     12 N          63.9775   85.9562   13.6527 N.am    1  UNL1       -0.2785
     13 C          63.1756   86.6552   12.5951 C.2     1  UNL1        0.2263
     14 C          63.0977   88.1531   12.5805 C.3     1  UNL1        0.0948
     15 O          62.4516   85.8563   11.5522 O.2     1  UNL1       -0.2748
     16 N          62.6992   82.8747   11.7082 N.pl3   1  UNL1       -0.2900
     17 C          63.2270   82.1395   10.5120 C.3     1  UNL1        0.1242
     18 C          63.3049   80.6416   10.5266 C.3     1  UNL1        0.1636
     19 O          62.8551   79.8790   11.7375 O.3     1  UNL1       -0.3502
     20 C          62.3273   80.6142   12.9336 C.3     1  UNL1        0.1618
     21 C          62.2494   82.1121   12.9190 C.3     1  UNL1        0.1038
     22 C          61.7216   82.8473   14.1152 C.3     1  UNL1        0.0241
     23 C          59.3357   88.6668    7.4489 C.ar    1  UNL1        0.0516
     24 C          60.1128   89.4665    8.4523 C.ar    1  UNL1        0.0148
     25 C          60.9147   88.7674    9.5098 C.ar    1  UNL1        0.0043
     26 C          60.9395   87.2686    9.5639 C.ar    1  UNL1        0.0359
     27 C          60.1625   86.4688    8.5606 C.ar    1  UNL1        0.0043
     28 C          59.3606   87.1679    7.5032 C.ar    1  UNL1        0.0148
     29 N          58.3268   91.2180    4.5814 N.am    1  UNL1       -0.2887
     30 C          59.1288   90.5189    5.6388 C.2     1  UNL1        0.3045
     31 O          60.5255   90.9729    5.9435 O.2     1  UNL1       -0.2525
     32 N          58.5338   89.3659    6.3915 N.am    1  UNL1       -0.2683
     33 H          57.4101   90.9200    4.3813 H       1  UNL1        0.1510
     34 H          57.6171   89.0679    6.1914 H       1  UNL1        0.1564
     35 C          60.2448   92.2143    3.1395 C.3     1  UNL1        0.0230
     36 C          58.9218   92.3710    3.8287 C.3     1  UNL1        0.0910
@<TRIPOS>BOND
     1    35    36    1
     2    36    29    1
     3    29    30   am
     4    30    31    2
     5    30    32   am
     6    32    23    1
     7    23    24   ar
     8    24    25   ar
     9    25    26   ar
    10    26     1    1
    11     1     2   ar
    12     2     3   ar
    13     3     4   ar
    14     4     5   ar
    15     5    16    1
    16    16    17    1
    17    17    18    1
    18    18    19    1
    19    19    20    1
    20    20    21    1
    21    21    22    1
    22     5     6   ar
    23     4     7    1
    24     7     8    1
    25     8     9    1
    26    10     9    1
    27    10    11    1
    28    10    12    1
    29    12    13   am
    30    13    14    1
    31    13    15    2
    32    26    27   ar
    33    27    28   ar
    34    28    23   ar
    35     6     1   ar
    36    12     7    1
    37    11     3    1
    38    21    16    1
    39    29    33    1
    40    32    34    1
@<TRIPOS>MOLECULE
*****
 36 40 0 0 0
SMALL
GASTEIGER

@<TRIPOS>ATOM
      1 C          60.6785   92.7931    2.6609 C.ar    1  UNL1        0.1632
      2 N          62.1392   93.0967    2.5052 N.ar    1  UNL1       -0.2310
      3 C          62.6044   93.9966    1.3988 C.ar    1  UNL1        0.0625
      4 C          61.6090   94.5927    0.4482 C.ar    1  UNL1        0.0410
      5 C          60.1483   94.2891    0.6039 C.ar    1  UNL1        0.1320
      6 N          59.6831   93.3893    1.7103 N.ar    1  UNL1       -0.2122
      7 C          62.0743   95.4925   -0.6581 C.3     1  UNL1        0.1017
      8 C          62.9549   96.2960   -1.5684 C.3     1  UNL1        0.0262
      9 C          64.3730   96.1271   -1.1095 C.3     1  UNL1        0.0223
     10 C          64.3687   95.2191    0.0845 C.3     1  UNL1        0.0815
     11 C          64.0651   94.3001    1.2432 C.3     1  UNL1        0.0654
     12 N          62.9480   94.8269    0.3635 N.am    1  UNL1       -0.2785
     13 C          62.4827   93.9272    1.4698 C.2     1  UNL1        0.2263
     14 C          63.4782   93.3310    2.4204 C.3     1  UNL1        0.0948
     15 O          61.0220   93.6236    1.6255 O.2     1  UNL1       -0.2748
     16 N          59.1529   94.8853   -0.3467 N.pl3   1  UNL1       -0.2900
     17 C          58.5963   96.2541   -0.0888 C.3     1  UNL1        0.1242
     18 C          57.6009   96.8503   -1.0394 C.3     1  UNL1        0.1636
     19 O          57.1621   96.0776   -2.2479 O.3     1  UNL1       -0.3502
     20 C          57.7187   94.7088   -2.5058 C.3     1  UNL1        0.1618
     21 C          58.7141   94.1127   -1.5552 C.3     1  UNL1        0.1038
     22 C          59.2707   92.7439   -1.8131 C.3     1  UNL1        0.0241
     23 C          59.2828   90.0939    5.9799 C.ar    1  UNL1        0.0516
     24 C          58.3232   91.0523    5.3389 C.ar    1  UNL1        0.0148
     25 C          58.7885   91.9520    4.2326 C.ar    1  UNL1        0.0043
     26 C          60.2133   91.8934    3.7672 C.ar    1  UNL1        0.0359
     27 C          61.1728   90.9350    4.4082 C.ar    1  UNL1        0.0043
     28 C          60.7075   90.0353    5.5145 C.ar    1  UNL1        0.0148
     29 N          59.2194   88.0763    9.3968 N.am    1  UNL1       -0.2887
     30 C          59.6848   88.9760    8.2906 C.2     1  UNL1        0.3045
     31 O          61.0173   89.6577    8.3885 O.2     1  UNL1       -0.2525
     32 N          58.8175   89.1941    7.0863 N.am    1  UNL1       -0.2683
     33 H          58.3448   87.6289    9.3325 H       1  UNL1        0.1510
     34 H          57.9429   88.7467    7.0220 H       1  UNL1        0.1564
     35 C          61.0999   86.7522   10.6053 C.3     1  UNL1        0.0230
     36 C          60.0867   87.8582   10.6011 C.3     1  UNL1        0.0910
@<TRIPOS>BOND
     1    35    36    1
     2    36    29    1
     3    29    30   am
     4    30    31    2
     5    30    32   am
     6    32    23    1
     7    23    24   ar
     8    24    25   ar
     9    25    26   ar
    10    26     1    1
    11     1     2   ar
    12     2     3   ar
    13     3     4   ar
    14     4     5   ar
    15     5    16    1
    16    16    17    1
    17    17    18    1
    18    18    19    1
    19    19    20    1
    20    20    21    1
    21    21    22    1
    22     5     6   ar
    23     4     7    1
    24     7     8    1
    25     8     9    1
    26    10     9    1
    27    10    11    1
    28    10    12    1
    29    12    13   am
    30    13    14    1
    31    13    15    2
    32    26    27   ar
    33    27    28   ar
    34    28    23   ar
    35     6     1   ar
    36    12     7    1
    37    11     3    1
    38    21    16    1
    39    29    33    1
    40    32    34    1
