@<TRIPOS>MOLECULE
*****
 36 38 0 0 0
SMALL
GASTEIGER

@<TRIPOS>ATOM
      1 C          63.3306   90.3386   11.9568 C.2     1  UNL1        0.2271
      2 O          62.7882   90.3381   10.5583 O.2     1  UNL1       -0.2748
      3 N          63.5077   89.0436   12.6930 N.am    1  UNL1       -0.2760
      4 C          63.1424   87.7483   12.0306 C.3     1  UNL1        0.1149
      5 C          63.3194   86.4535   12.7668 C.3     1  UNL1        0.1152
      6 N          63.8618   86.4539   14.1653 N.am    1  UNL1       -0.2726
      7 C          64.0389   85.1590   14.9014 C.2     1  UNL1        0.2491
      8 O          64.5812   85.1594   16.2999 O.2     1  UNL1       -0.2699
      9 C          64.2271   87.7492   14.8276 C.3     1  UNL1        0.1152
     10 C          64.0500   89.0440   14.0915 C.3     1  UNL1        0.1149
     11 C          63.6736   83.8637   14.2391 C.ar    1  UNL1        0.0538
     12 C          64.6287   83.2156   13.2811 C.ar    1  UNL1        0.0076
     13 C          64.2634   81.9203   12.6188 C.ar    1  UNL1        0.0373
     14 C          62.9429   81.2731   12.9143 C.ar    1  UNL1        0.1468
     15 C          61.9877   81.9212   13.8723 C.ar    1  UNL1        0.0373
     16 C          62.3530   83.2164   14.5346 C.ar    1  UNL1        0.0076
     17 O          62.5776   79.9778   12.2520 O.3     1  UNL1       -0.4045
     18 C          62.7908   79.8031   10.7775 C.3     1  UNL1        0.5753
     19 F          63.0041   79.6284    9.3031 F       1  UNL1       -0.1328
     20 F          62.8192   81.2929   10.6051 F       1  UNL1       -0.1328
     21 F          62.7624   78.3133   10.9499 F       1  UNL1       -0.1328
     22 C          63.6959   91.6338   12.6192 C.3     1  UNL1        0.1010
     23 N          65.6206   92.5313   14.1159 N.3     1  UNL1       -0.3215
     24 C          65.1385   92.0048   12.7967 C.3     1  UNL1        0.0644
     25 H          64.8404   92.5710   14.7718 H       1  UNL1        0.1188
     26 H          66.0054   93.4673   13.9883 H       1  UNL1        0.1188
     27 C          66.0989   91.8491   11.6551 C.3     1  UNL1        0.0447
     28 C          66.4729   93.0391   10.8221 C.ar    1  UNL1        0.0090
     29 C          65.7766   94.3509   11.0330 C.ar    1  UNL1        0.0300
     30 C          66.1505   95.5409   10.1999 C.ar    1  UNL1        0.1672
     31 F          65.4542   96.8527   10.4108 F       1  UNL1       -0.2018
     32 C          67.2208   95.4192    9.1560 C.ar    1  UNL1        0.1696
     33 F          67.5948   96.6093    8.3230 F       1  UNL1       -0.2017
     34 C          67.9171   94.1075    8.9452 C.ar    1  UNL1        0.0612
     35 C          67.5431   92.9174    9.7782 C.ar    1  UNL1        0.1386
     36 F          68.2394   91.6057    9.5673 F       1  UNL1       -0.2044
@<TRIPOS>BOND
     1    24    23    1
     2    24    22    1
     3    22     1    1
     4     1     2    2
     5     1     3   am
     6     3     4    1
     7     4     5    1
     8     5     6    1
     9     6     7   am
    10     7     8    2
    11     7    11    1
    12    11    12   ar
    13    12    13   ar
    14    13    14   ar
    15    14    17    1
    16    17    18    1
    17    18    19    1
    18    18    20    1
    19    18    21    1
    20    14    15   ar
    21    15    16   ar
    22     6     9    1
    23     9    10    1
    24    24    27    1
    25    27    28    1
    26    28    29   ar
    27    29    30   ar
    28    30    31    1
    29    30    32   ar
    30    32    33    1
    31    32    34   ar
    32    34    35   ar
    33    35    36    1
    34    10     3    1
    35    35    28   ar
    36    16    11   ar
    37    23    25    1
    38    23    26    1
@<TRIPOS>MOLECULE
*****
 36 38 0 0 0
SMALL
GASTEIGER

@<TRIPOS>ATOM
      1 C          60.1495   88.7193   10.9940 C.2     1  UNL1        0.2271
      2 O          59.5814   88.1504   12.2604 O.2     1  UNL1       -0.2748
      3 N          61.3658   89.5957   11.0449 N.am    1  UNL1       -0.2760
      4 C          62.0141   89.9031   12.3622 C.3     1  UNL1        0.1149
      5 C          63.2304   90.7794   12.4130 C.3     1  UNL1        0.1152
      6 N          63.7984   91.3483   11.1466 N.am    1  UNL1       -0.2726
      7 C          65.0148   92.2247   11.1976 C.2     1  UNL1        0.2491
      8 O          65.5828   92.7936    9.9312 O.2     1  UNL1       -0.2699
      9 C          63.1502   91.0409    9.8294 C.3     1  UNL1        0.1152
     10 C          61.9339   90.1646    9.7785 C.3     1  UNL1        0.1149
     11 C          65.6631   92.5321   12.5148 C.ar    1  UNL1        0.0538
     12 C          65.7564   91.4707   13.5706 C.ar    1  UNL1        0.0076
     13 C          66.4047   91.7782   14.8879 C.ar    1  UNL1        0.0373
     14 C          66.9596   93.1470   15.1494 C.ar    1  UNL1        0.1468
     15 C          66.8663   94.2084   14.0935 C.ar    1  UNL1        0.0373
     16 C          66.2180   93.9010   12.7763 C.ar    1  UNL1        0.0076
     17 O          67.6079   93.4545   16.4666 O.3     1  UNL1       -0.4045
     18 C          69.0818   93.7254   16.5321 C.3     1  UNL1        0.5753
     19 F          70.5557   93.9963   16.5975 F       1  UNL1       -0.1328
     20 F          69.3423   92.2611   16.7271 F       1  UNL1       -0.1328
     21 F          68.8213   95.1897   16.3371 F       1  UNL1       -0.1328
     22 C          59.5012   88.4119    9.6767 C.3     1  UNL1        0.1010
     23 N          59.0127   86.3690    8.1476 N.3     1  UNL1       -0.3215
     24 C          59.9931   87.2616    8.8490 C.3     1  UNL1        0.0644
     25 H          58.0634   86.6878    8.3417 H       1  UNL1        0.1188
     26 H          59.1249   85.4118    8.4817 H       1  UNL1        0.1188
     27 C          61.4654   87.0041    8.7228 C.3     1  UNL1        0.0447
     28 C          62.1071   85.9112    9.5251 C.ar    1  UNL1        0.0090
     29 C          61.8560   85.8179   11.0011 C.ar    1  UNL1        0.0300
     30 C          62.4976   84.7251   11.8034 C.ar    1  UNL1        0.1672
     31 F          62.2465   84.6318   13.2793 F       1  UNL1       -0.2018
     32 C          63.3905   83.7254   11.1300 C.ar    1  UNL1        0.1696
     33 F          64.0321   82.6325   11.9323 F       1  UNL1       -0.2017
     34 C          63.6416   83.8186    9.6541 C.ar    1  UNL1        0.0612
     35 C          62.9999   84.9115    8.8516 C.ar    1  UNL1        0.1386
     36 F          63.2511   85.0048    7.3758 F       1  UNL1       -0.2044
@<TRIPOS>BOND
     1    24    23    1
     2    24    22    1
     3    22     1    1
     4     1     2    2
     5     1     3   am
     6     3     4    1
     7     4     5    1
     8     5     6    1
     9     6     7   am
    10     7     8    2
    11     7    11    1
    12    11    12   ar
    13    12    13   ar
    14    13    14   ar
    15    14    17    1
    16    17    18    1
    17    18    19    1
    18    18    20    1
    19    18    21    1
    20    14    15   ar
    21    15    16   ar
    22     6     9    1
    23     9    10    1
    24    24    27    1
    25    27    28    1
    26    28    29   ar
    27    29    30   ar
    28    30    31    1
    29    30    32   ar
    30    32    33    1
    31    32    34   ar
    32    34    35   ar
    33    35    36    1
    34    10     3    1
    35    35    28   ar
    36    16    11   ar
    37    23    25    1
    38    23    26    1
@<TRIPOS>MOLECULE
*****
 36 38 0 0 0
SMALL
GASTEIGER

@<TRIPOS>ATOM
      1 C          63.7978   90.4450   12.9907 C.2     1  UNL1        0.2271
      2 O          63.3279   90.8880   11.6368 O.2     1  UNL1       -0.2748
      3 N          63.8766   88.9828   13.3160 N.am    1  UNL1       -0.2760
      4 C          63.4855   87.9636   12.2873 C.3     1  UNL1        0.1149
      5 C          63.5643   86.5014   12.6125 C.3     1  UNL1        0.1152
      6 N          64.0342   86.0585   13.9664 N.am    1  UNL1       -0.2726
      7 C          64.1130   84.5962   14.2916 C.2     1  UNL1        0.2491
      8 O          64.5828   84.1533   15.6456 O.2     1  UNL1       -0.2699
      9 C          64.4252   87.0777   14.9951 C.3     1  UNL1        0.1152
     10 C          64.3464   88.5399   14.6699 C.3     1  UNL1        0.1149
     11 C          63.7220   83.5770   13.2630 C.ar    1  UNL1        0.0538
     12 C          62.4768   82.7618   13.4503 C.ar    1  UNL1        0.0076
     13 C          62.0858   81.7425   12.4216 C.ar    1  UNL1        0.0373
     14 C          62.9399   81.5385   11.2056 C.ar    1  UNL1        0.1468
     15 C          64.1851   82.3536   11.0182 C.ar    1  UNL1        0.0373
     16 C          64.5761   83.3729   12.0469 C.ar    1  UNL1        0.0076
     17 O          62.5489   80.5192   10.1769 O.3     1  UNL1       -0.4045
     18 C          62.8630   79.0696   10.4002 C.3     1  UNL1        0.5753
     19 F          63.1772   77.6200   10.6234 F       1  UNL1       -0.1328
     20 F          63.1228   78.8998    8.9326 F       1  UNL1       -0.1328
     21 F          62.6032   79.2393   11.8677 F       1  UNL1       -0.1328
     22 C          64.1888   91.4643   14.0194 C.3     1  UNL1        0.1010
     23 N          66.6999   91.2049   14.6337 N.3     1  UNL1       -0.3215
     24 C          65.5848   92.0128   14.0389 C.3     1  UNL1        0.0644
     25 H          66.3319   90.3166   14.9742 H       1  UNL1        0.1188
     26 H          67.1168   91.7199   15.4091 H       1  UNL1        0.1188
     27 C          65.8657   93.3693   13.4636 C.3     1  UNL1        0.0447
     28 C          66.4001   93.4959   12.0678 C.ar    1  UNL1        0.0090
     29 C          66.9430   92.2898   11.3602 C.ar    1  UNL1        0.0300
     30 C          67.4774   92.4165    9.9644 C.ar    1  UNL1        0.1672
     31 F          68.0203   91.2104    9.2569 F       1  UNL1       -0.2018
     32 C          67.4689   93.7492    9.2761 C.ar    1  UNL1        0.1696
     33 F          68.0033   93.8758    7.8803 F       1  UNL1       -0.2017
     34 C          66.9261   94.9553    9.9836 C.ar    1  UNL1        0.0612
     35 C          66.3916   94.8287   11.3794 C.ar    1  UNL1        0.1386
     36 F          65.8487   96.0348   12.0869 F       1  UNL1       -0.2044
@<TRIPOS>BOND
     1    24    23    1
     2    24    22    1
     3    22     1    1
     4     1     2    2
     5     1     3   am
     6     3     4    1
     7     4     5    1
     8     5     6    1
     9     6     7   am
    10     7     8    2
    11     7    11    1
    12    11    12   ar
    13    12    13   ar
    14    13    14   ar
    15    14    17    1
    16    17    18    1
    17    18    19    1
    18    18    20    1
    19    18    21    1
    20    14    15   ar
    21    15    16   ar
    22     6     9    1
    23     9    10    1
    24    24    27    1
    25    27    28    1
    26    28    29   ar
    27    29    30   ar
    28    30    31    1
    29    30    32   ar
    30    32    33    1
    31    32    34   ar
    32    34    35   ar
    33    35    36    1
    34    10     3    1
    35    35    28   ar
    36    16    11   ar
    37    23    25    1
    38    23    26    1
@<TRIPOS>MOLECULE
*****
 36 38 0 0 0
SMALL
GASTEIGER

@<TRIPOS>ATOM
      1 C          62.9184   89.8520   11.5152 C.2     1  UNL1        0.2271
      2 O          62.3623   89.8185   10.1226 O.2     1  UNL1       -0.2748
      3 N          63.1584   88.5710   12.2580 N.am    1  UNL1       -0.2760
      4 C          62.8423   87.2567   11.6080 C.3     1  UNL1        0.1149
      5 C          63.0823   85.9758   12.3508 C.3     1  UNL1        0.1152
      6 N          63.6384   86.0093   13.7434 N.am    1  UNL1       -0.2726
      7 C          63.8784   84.7283   14.4862 C.2     1  UNL1        0.2491
      8 O          64.4346   84.7618   15.8789 O.2     1  UNL1       -0.2699
      9 C          63.9546   87.3236   14.3934 C.3     1  UNL1        0.1152
     10 C          63.7146   88.6045   13.6507 C.3     1  UNL1        0.1149
     11 C          63.5623   83.4140   13.8362 C.ar    1  UNL1        0.0538
     12 C          64.5507   82.7826   12.9012 C.ar    1  UNL1        0.0076
     13 C          64.2345   81.4682   12.2512 C.ar    1  UNL1        0.0373
     14 C          62.9299   80.7852   12.5363 C.ar    1  UNL1        0.1468
     15 C          61.9414   81.4165   13.4714 C.ar    1  UNL1        0.0373
     16 C          62.2576   82.7309   14.1213 C.ar    1  UNL1        0.0076
     17 O          62.6137   79.4708   11.8864 O.3     1  UNL1       -0.4045
     18 C          62.8330   79.2905   10.4135 C.3     1  UNL1        0.5753
     19 F          63.0523   79.1102    8.9406 F       1  UNL1       -0.1328
     20 F          62.8534   80.7796   10.2342 F       1  UNL1       -0.1328
     21 F          62.8126   77.8014   10.5928 F       1  UNL1       -0.1328
     22 C          63.2346   91.1664   12.1652 C.3     1  UNL1        0.1010
     23 N          65.4121   92.4629   11.5928 N.3     1  UNL1       -0.3215
     24 C          64.6564   91.5226   12.4842 C.3     1  UNL1        0.0644
     25 H          64.8106   92.7604   10.8246 H       1  UNL1        0.1188
     26 H          66.2337   91.9891   11.2174 H       1  UNL1        0.1188
     27 C          65.3224   90.9384   13.6947 C.3     1  UNL1        0.0447
     28 C          66.4345   91.6833   14.3716 C.ar    1  UNL1        0.0090
     29 C          67.8085   91.6892   13.7697 C.ar    1  UNL1        0.0300
     30 C          68.9206   92.4341   14.4467 C.ar    1  UNL1        0.1672
     31 F          70.2945   92.4399   13.8448 F       1  UNL1       -0.2018
     32 C          68.6588   93.1732   15.7254 C.ar    1  UNL1        0.1696
     33 F          69.7709   93.9181   16.4023 F       1  UNL1       -0.2017
     34 C          67.2849   93.1674   16.3272 C.ar    1  UNL1        0.0612
     35 C          66.1727   92.4225   15.6503 C.ar    1  UNL1        0.1386
     36 F          64.7988   92.4167   16.2522 F       1  UNL1       -0.2044
@<TRIPOS>BOND
     1    24    23    1
     2    24    22    1
     3    22     1    1
     4     1     2    2
     5     1     3   am
     6     3     4    1
     7     4     5    1
     8     5     6    1
     9     6     7   am
    10     7     8    2
    11     7    11    1
    12    11    12   ar
    13    12    13   ar
    14    13    14   ar
    15    14    17    1
    16    17    18    1
    17    18    19    1
    18    18    20    1
    19    18    21    1
    20    14    15   ar
    21    15    16   ar
    22     6     9    1
    23     9    10    1
    24    24    27    1
    25    27    28    1
    26    28    29   ar
    27    29    30   ar
    28    30    31    1
    29    30    32   ar
    30    32    33    1
    31    32    34   ar
    32    34    35   ar
    33    35    36    1
    34    10     3    1
    35    35    28   ar
    36    16    11   ar
    37    23    25    1
    38    23    26    1
@<TRIPOS>MOLECULE
*****
 36 38 0 0 0
SMALL
GASTEIGER

@<TRIPOS>ATOM
      1 C          63.0510   89.8792   11.5057 C.2     1  UNL1        0.2271
      2 O          62.4183   89.8527   10.1459 O.2     1  UNL1       -0.2748
      3 N          63.2943   88.5968   12.2449 N.am    1  UNL1       -0.2760
      4 C          62.9050   87.2880   11.6243 C.3     1  UNL1        0.1149
      5 C          63.1484   86.0057   12.3635 C.3     1  UNL1        0.1152
      6 N          63.7811   86.0322   13.7232 N.am    1  UNL1       -0.2726
      7 C          64.0244   84.7498   14.4624 C.2     1  UNL1        0.2491
      8 O          64.6571   84.7764   15.8222 O.2     1  UNL1       -0.2699
      9 C          64.1704   87.3411   14.3439 C.3     1  UNL1        0.1152
     10 C          63.9270   88.6234   13.6047 C.3     1  UNL1        0.1149
     11 C          63.6351   83.4410   13.8418 C.ar    1  UNL1        0.0538
     12 C          62.3819   82.7449   14.2832 C.ar    1  UNL1        0.0076
     13 C          61.9926   81.4359   13.6625 C.ar    1  UNL1        0.0373
     14 C          62.8566   80.8231   12.6005 C.ar    1  UNL1        0.1468
     15 C          64.1098   81.5192   12.1591 C.ar    1  UNL1        0.0373
     16 C          64.4991   82.8280   12.7797 C.ar    1  UNL1        0.0076
     17 O          62.4673   79.5142   11.9799 O.3     1  UNL1       -0.4045
     18 C          62.7846   79.2435   10.5390 C.3     1  UNL1        0.5753
     19 F          63.1019   78.9728    9.0982 F       1  UNL1       -0.1328
     20 F          62.8765   77.7759   10.8350 F       1  UNL1       -0.1328
     21 F          62.6927   80.7111   10.2430 F       1  UNL1       -0.1328
     22 C          63.4403   91.1881   12.1264 C.3     1  UNL1        0.1010
     23 N          64.5824   91.9678    9.9268 N.3     1  UNL1       -0.3215
     24 C          64.3796   92.1097   11.4063 C.3     1  UNL1        0.0644
     25 H          64.0080   91.2009    9.5770 H       1  UNL1        0.1188
     26 H          65.5649   91.7715    9.7356 H       1  UNL1        0.1188
     27 C          65.1161   93.1731   12.1657 C.3     1  UNL1        0.0447
     28 C          66.1109   92.7887   13.2205 C.ar    1  UNL1        0.0090
     29 C          65.7715   92.9642   14.6710 C.ar    1  UNL1        0.0300
     30 C          66.7663   92.5798   15.7258 C.ar    1  UNL1        0.1672
     31 F          66.4269   92.7552   17.1763 F       1  UNL1       -0.2018
     32 C          68.1004   92.0200   15.3301 C.ar    1  UNL1        0.1696
     33 F          69.0952   91.6356   16.3849 F       1  UNL1       -0.2017
     34 C          68.4399   91.8445   13.8797 C.ar    1  UNL1        0.0612
     35 C          67.4451   92.2289   12.8248 C.ar    1  UNL1        0.1386
     36 F          67.7845   92.0534   11.3743 F       1  UNL1       -0.2044
@<TRIPOS>BOND
     1    24    23    1
     2    24    22    1
     3    22     1    1
     4     1     2    2
     5     1     3   am
     6     3     4    1
     7     4     5    1
     8     5     6    1
     9     6     7   am
    10     7     8    2
    11     7    11    1
    12    11    12   ar
    13    12    13   ar
    14    13    14   ar
    15    14    17    1
    16    17    18    1
    17    18    19    1
    18    18    20    1
    19    18    21    1
    20    14    15   ar
    21    15    16   ar
    22     6     9    1
    23     9    10    1
    24    24    27    1
    25    27    28    1
    26    28    29   ar
    27    29    30   ar
    28    30    31    1
    29    30    32   ar
    30    32    33    1
    31    32    34   ar
    32    34    35   ar
    33    35    36    1
    34    10     3    1
    35    35    28   ar
    36    16    11   ar
    37    23    25    1
    38    23    26    1
@<TRIPOS>MOLECULE
*****
 36 38 0 0 0
SMALL
GASTEIGER

@<TRIPOS>ATOM
      1 C          61.5232   87.7748   10.3001 C.2     1  UNL1        0.2271
      2 O          60.9750   88.0217    8.9258 O.2     1  UNL1       -0.2748
      3 N          62.4408   88.7786   10.9330 N.am    1  UNL1       -0.2760
      4 C          62.8103   90.0291   10.1917 C.3     1  UNL1        0.1149
      5 C          63.7279   91.0327   10.8246 C.3     1  UNL1        0.1152
      6 N          64.2761   90.7858   12.1989 N.am    1  UNL1       -0.2726
      7 C          65.1937   91.7896   12.8318 C.2     1  UNL1        0.2491
      8 O          65.7419   91.5427   14.2061 O.2     1  UNL1       -0.2699
      9 C          63.9066   89.5353   12.9402 C.3     1  UNL1        0.1152
     10 C          62.9890   88.5316   12.3073 C.3     1  UNL1        0.1149
     11 C          65.5632   93.0401   12.0905 C.ar    1  UNL1        0.0538
     12 C          66.0879   94.2289   12.8398 C.ar    1  UNL1        0.0076
     13 C          66.4574   95.4795   12.0984 C.ar    1  UNL1        0.0373
     14 C          66.3021   95.5413   10.6078 C.ar    1  UNL1        0.1468
     15 C          65.7773   94.3525    9.8585 C.ar    1  UNL1        0.0373
     16 C          65.4078   93.1020   10.5998 C.ar    1  UNL1        0.0076
     17 O          66.6715   96.7918    9.8665 O.3     1  UNL1       -0.4045
     18 C          66.6028   96.8237    8.3684 C.3     1  UNL1        0.5753
     19 F          66.5341   96.8555    6.8703 F       1  UNL1       -0.1328
     20 F          65.1045   96.8446    8.4376 F       1  UNL1       -0.1328
     21 F          68.1010   96.8027    8.2992 F       1  UNL1       -0.1328
     22 C          61.1537   86.5243   11.0414 C.3     1  UNL1        0.1010
     23 N          62.6880   84.7659    9.8994 N.3     1  UNL1       -0.3215
     24 C          62.1361   85.3953   11.1440 C.3     1  UNL1        0.0644
     25 H          62.2903   85.2261    9.0806 H       1  UNL1        0.1188
     26 H          62.4464   83.7751    9.8835 H       1  UNL1        0.1188
     27 C          62.5664   84.8957   12.4913 C.3     1  UNL1        0.0447
     28 C          62.5274   83.4272   12.7942 C.ar    1  UNL1        0.0090
     29 C          62.7174   82.4285   11.6911 C.ar    1  UNL1        0.0300
     30 C          62.6784   80.9600   11.9940 C.ar    1  UNL1        0.1672
     31 F          62.8683   79.9615   10.8909 F       1  UNL1       -0.2018
     32 C          62.4494   80.4900   13.3999 C.ar    1  UNL1        0.1696
     33 F          62.4104   79.0214   13.7028 F       1  UNL1       -0.2017
     34 C          62.2594   81.4885   14.5030 C.ar    1  UNL1        0.0612
     35 C          62.2984   82.9571   14.2001 C.ar    1  UNL1        0.1386
     36 F          62.1085   83.9557   15.3032 F       1  UNL1       -0.2044
@<TRIPOS>BOND
     1    24    23    1
     2    24    22    1
     3    22     1    1
     4     1     2    2
     5     1     3   am
     6     3     4    1
     7     4     5    1
     8     5     6    1
     9     6     7   am
    10     7     8    2
    11     7    11    1
    12    11    12   ar
    13    12    13   ar
    14    13    14   ar
    15    14    17    1
    16    17    18    1
    17    18    19    1
    18    18    20    1
    19    18    21    1
    20    14    15   ar
    21    15    16   ar
    22     6     9    1
    23     9    10    1
    24    24    27    1
    25    27    28    1
    26    28    29   ar
    27    29    30   ar
    28    30    31    1
    29    30    32   ar
    30    32    33    1
    31    32    34   ar
    32    34    35   ar
    33    35    36    1
    34    10     3    1
    35    35    28   ar
    36    16    11   ar
    37    23    25    1
    38    23    26    1
@<TRIPOS>MOLECULE
*****
 36 38 0 0 0
SMALL
GASTEIGER

@<TRIPOS>ATOM
      1 C          60.4616   89.3920    8.7966 C.2     1  UNL1        0.2271
      2 O          60.9874   90.1045    7.5859 O.2     1  UNL1       -0.2748
      3 N          61.1189   89.5933   10.1298 N.am    1  UNL1       -0.2760
      4 C          62.3021   90.5071   10.2523 C.3     1  UNL1        0.1149
      5 C          62.9593   90.7084   11.5855 C.3     1  UNL1        0.1152
      6 N          62.4335   89.9958   12.7962 N.am    1  UNL1       -0.2726
      7 C          63.0908   90.1972   14.1294 C.2     1  UNL1        0.2491
      8 O          62.5649   89.4846   15.3401 O.2     1  UNL1       -0.2699
      9 C          61.2503   89.0820   12.6737 C.3     1  UNL1        0.1152
     10 C          60.5930   88.8808   11.3405 C.3     1  UNL1        0.1149
     11 C          64.2740   91.1110   14.2519 C.ar    1  UNL1        0.0538
     12 C          64.9719   91.6037   13.0190 C.ar    1  UNL1        0.0076
     13 C          66.1551   92.5176   13.1416 C.ar    1  UNL1        0.0373
     14 C          66.6403   92.9386   14.4970 C.ar    1  UNL1        0.1468
     15 C          65.9424   92.4458   15.7299 C.ar    1  UNL1        0.0373
     16 C          64.7593   91.5320   15.6074 C.ar    1  UNL1        0.0076
     17 O          67.8235   93.8524   14.6195 O.3     1  UNL1       -0.4045
     18 C          68.9079   93.5467   15.6097 C.3     1  UNL1        0.5753
     19 F          69.9924   93.2409   16.5999 F       1  UNL1       -0.1328
     20 F          68.7020   94.8878   16.2493 F       1  UNL1       -0.1328
     21 F          69.1138   92.2056   14.9701 F       1  UNL1       -0.1328
     22 C          59.2784   88.4782    8.6741 C.3     1  UNL1        0.1010
     23 N          58.2083   86.3247    7.6905 N.3     1  UNL1       -0.3215
     24 C          59.4239   87.1501    7.9921 C.3     1  UNL1        0.0644
     25 H          57.3751   86.8153    8.0154 H       1  UNL1        0.1188
     26 H          58.2809   85.4257    8.1669 H       1  UNL1        0.1188
     27 C          60.7850   86.6474    7.6118 C.3     1  UNL1        0.0447
     28 C          61.6019   85.8721    8.6025 C.ar    1  UNL1        0.0090
     29 C          61.3172   85.9962   10.0700 C.ar    1  UNL1        0.0300
     30 C          62.1341   85.2209   11.0607 C.ar    1  UNL1        0.1672
     31 F          61.8494   85.3450   12.5282 F       1  UNL1       -0.2018
     32 C          63.2359   84.3215   10.5839 C.ar    1  UNL1        0.1696
     33 F          64.0528   83.5462   11.5746 F       1  UNL1       -0.2017
     34 C          63.5206   84.1974    9.1165 C.ar    1  UNL1        0.0612
     35 C          62.7037   84.9727    8.1257 C.ar    1  UNL1        0.1386
     36 F          62.9884   84.8486    6.6583 F       1  UNL1       -0.2044
@<TRIPOS>BOND
     1    24    23    1
     2    24    22    1
     3    22     1    1
     4     1     2    2
     5     1     3   am
     6     3     4    1
     7     4     5    1
     8     5     6    1
     9     6     7   am
    10     7     8    2
    11     7    11    1
    12    11    12   ar
    13    12    13   ar
    14    13    14   ar
    15    14    17    1
    16    17    18    1
    17    18    19    1
    18    18    20    1
    19    18    21    1
    20    14    15   ar
    21    15    16   ar
    22     6     9    1
    23     9    10    1
    24    24    27    1
    25    27    28    1
    26    28    29   ar
    27    29    30   ar
    28    30    31    1
    29    30    32   ar
    30    32    33    1
    31    32    34   ar
    32    34    35   ar
    33    35    36    1
    34    10     3    1
    35    35    28   ar
    36    16    11   ar
    37    23    25    1
    38    23    26    1
@<TRIPOS>MOLECULE
*****
 36 38 0 0 0
SMALL
GASTEIGER

@<TRIPOS>ATOM
      1 C          63.6359   87.7620   13.6748 C.2     1  UNL1        0.2271
      2 O          62.8385   87.3195   12.4839 O.2     1  UNL1       -0.2748
      3 N          64.3016   89.1062   13.6743 N.am    1  UNL1       -0.2760
      4 C          64.1699   90.0079   12.4829 C.3     1  UNL1        0.1149
      5 C          64.8355   91.3521   12.4824 C.3     1  UNL1        0.1152
      6 N          65.6330   91.7946   13.6733 N.am    1  UNL1       -0.2726
      7 C          66.2987   93.1388   13.6728 C.2     1  UNL1        0.2491
      8 O          67.0961   93.5813   14.8637 O.2     1  UNL1       -0.2699
      9 C          65.7648   90.8929   14.8647 C.3     1  UNL1        0.1152
     10 C          65.0991   89.5487   14.8652 C.3     1  UNL1        0.1149
     11 C          66.1669   94.0405   12.4814 C.ar    1  UNL1        0.0538
     12 C          66.0473   93.4536   11.1061 C.ar    1  UNL1        0.0076
     13 C          65.9156   94.3554    9.9147 C.ar    1  UNL1        0.0373
     14 C          65.9033   95.8440   10.0985 C.ar    1  UNL1        0.1468
     15 C          66.0229   96.4309   11.4737 C.ar    1  UNL1        0.0373
     16 C          66.1547   95.5292   12.6651 C.ar    1  UNL1        0.0076
     17 O          65.7716   96.7457    8.9071 O.3     1  UNL1       -0.4045
     18 C          66.8634   96.7955    7.8797 C.3     1  UNL1        0.5753
     19 F          67.9552   96.8452    6.8524 F       1  UNL1       -0.1328
     20 F          67.8917   96.7771    8.9716 F       1  UNL1       -0.1328
     21 F          65.8351   96.8138    6.7878 F       1  UNL1       -0.1328
     22 C          63.7677   86.8603   14.8662 C.3     1  UNL1        0.1010
     23 N          65.4908   84.9242   14.6855 N.3     1  UNL1       -0.3215
     24 C          64.0695   85.4034   14.6746 C.3     1  UNL1        0.0644
     25 H          66.1157   85.7166   14.8339 H       1  UNL1        0.1188
     26 H          65.7077   84.4829   13.7918 H       1  UNL1        0.1188
     27 C          62.9499   84.4260   14.4720 C.3     1  UNL1        0.0447
     28 C          63.0036   83.4493   13.3348 C.ar    1  UNL1        0.0090
     29 C          63.6364   83.8467   12.0341 C.ar    1  UNL1        0.0300
     30 C          63.6901   82.8700   10.8969 C.ar    1  UNL1        0.1672
     31 F          64.3228   83.2674    9.5963 F       1  UNL1       -0.2018
     32 C          63.1110   81.4960   11.0604 C.ar    1  UNL1        0.1696
     33 F          63.1647   80.5194    9.9232 F       1  UNL1       -0.2017
     34 C          62.4783   81.0986   12.3610 C.ar    1  UNL1        0.0612
     35 C          62.4246   82.0753   13.4983 C.ar    1  UNL1        0.1386
     36 F          61.7918   81.6779   14.7989 F       1  UNL1       -0.2044
@<TRIPOS>BOND
     1    24    23    1
     2    24    22    1
     3    22     1    1
     4     1     2    2
     5     1     3   am
     6     3     4    1
     7     4     5    1
     8     5     6    1
     9     6     7   am
    10     7     8    2
    11     7    11    1
    12    11    12   ar
    13    12    13   ar
    14    13    14   ar
    15    14    17    1
    16    17    18    1
    17    18    19    1
    18    18    20    1
    19    18    21    1
    20    14    15   ar
    21    15    16   ar
    22     6     9    1
    23     9    10    1
    24    24    27    1
    25    27    28    1
    26    28    29   ar
    27    29    30   ar
    28    30    31    1
    29    30    32   ar
    30    32    33    1
    31    32    34   ar
    32    34    35   ar
    33    35    36    1
    34    10     3    1
    35    35    28   ar
    36    16    11   ar
    37    23    25    1
    38    23    26    1
@<TRIPOS>MOLECULE
*****
 36 38 0 0 0
SMALL
GASTEIGER

@<TRIPOS>ATOM
      1 C          62.7519   89.4360   11.4244 C.2     1  UNL1        0.2271
      2 O          62.0933   89.4133   10.0769 O.2     1  UNL1       -0.2748
      3 N          63.0451   88.1494   12.1377 N.am    1  UNL1       -0.2760
      4 C          62.6798   86.8401   11.5035 C.3     1  UNL1        0.1149
      5 C          62.9731   85.5536   12.2168 C.3     1  UNL1        0.1152
      6 N          63.6317   85.5764   13.5642 N.am    1  UNL1       -0.2726
      7 C          63.9249   84.2897   14.2775 C.2     1  UNL1        0.2491
      8 O          64.5835   84.3125   15.6250 O.2     1  UNL1       -0.2699
      9 C          63.9970   86.8856   14.1985 C.3     1  UNL1        0.1152
     10 C          63.7037   88.1722   13.4852 C.3     1  UNL1        0.1149
     11 C          63.5596   82.9805   13.6433 C.ar    1  UNL1        0.0538
     12 C          64.4189   82.4087   12.5549 C.ar    1  UNL1        0.0076
     13 C          64.0535   81.0993   11.9207 C.ar    1  UNL1        0.0373
     14 C          62.8289   80.3618   12.3748 C.ar    1  UNL1        0.1468
     15 C          61.9695   80.9336   13.4632 C.ar    1  UNL1        0.0373
     16 C          62.3349   82.2429   14.0975 C.ar    1  UNL1        0.0076
     17 O          62.4635   79.0526   11.7406 O.3     1  UNL1       -0.4045
     18 C          62.8648   78.7677   10.3236 C.3     1  UNL1        0.5753
     19 F          63.2661   78.4829    8.9067 F       1  UNL1       -0.1328
     20 F          62.6252   80.2048    9.9669 F       1  UNL1       -0.1328
     21 F          63.1045   77.3306   10.6804 F       1  UNL1       -0.1328
     22 C          63.1172   90.7453   12.0587 C.3     1  UNL1        0.1010
     23 N          63.2632   92.0740    9.8308 N.3     1  UNL1       -0.3215
     24 C          63.7400   91.8312   11.2321 C.3     1  UNL1        0.0644
     25 H          62.5176   91.4151    9.6064 H       1  UNL1        0.1188
     26 H          64.0384   91.9446    9.1807 H       1  UNL1        0.1188
     27 C          64.8395   92.6742   11.8069 C.3     1  UNL1        0.0447
     28 C          66.1819   92.7131   11.1389 C.ar    1  UNL1        0.0090
     29 C          66.3394   93.3922    9.8107 C.ar    1  UNL1        0.0300
     30 C          67.6818   93.4311    9.1427 C.ar    1  UNL1        0.1672
     31 F          67.8392   94.1101    7.8145 F       1  UNL1       -0.2018
     32 C          68.8669   92.7910    9.8029 C.ar    1  UNL1        0.1696
     33 F          70.2094   92.8300    9.1349 F       1  UNL1       -0.2017
     34 C          68.7095   92.1120   11.1310 C.ar    1  UNL1        0.0612
     35 C          67.3670   92.0730   11.7991 C.ar    1  UNL1        0.1386
     36 F          67.2097   91.3940   13.1273 F       1  UNL1       -0.2044
@<TRIPOS>BOND
     1    24    23    1
     2    24    22    1
     3    22     1    1
     4     1     2    2
     5     1     3   am
     6     3     4    1
     7     4     5    1
     8     5     6    1
     9     6     7   am
    10     7     8    2
    11     7    11    1
    12    11    12   ar
    13    12    13   ar
    14    13    14   ar
    15    14    17    1
    16    17    18    1
    17    18    19    1
    18    18    20    1
    19    18    21    1
    20    14    15   ar
    21    15    16   ar
    22     6     9    1
    23     9    10    1
    24    24    27    1
    25    27    28    1
    26    28    29   ar
    27    29    30   ar
    28    30    31    1
    29    30    32   ar
    30    32    33    1
    31    32    34   ar
    32    34    35   ar
    33    35    36    1
    34    10     3    1
    35    35    28   ar
    36    16    11   ar
    37    23    25    1
    38    23    26    1
