@<TRIPOS>MOLECULE
*****
 25 28 0 0 0
SMALL
GASTEIGER

@<TRIPOS>ATOM
      1 C          63.1849   86.7624   12.6245 C.3     1  UNL1        0.1140
      2 C          63.4489   88.2279   12.8061 C.ar    1  UNL1        0.0273
      3 C          64.2340   88.9864   13.8348 C.ar    1  UNL1        0.1379
      4 F          64.9311   88.2495   14.9396 F       1  UNL1       -0.2044
      5 C          64.3218   90.4819   13.7584 C.ar    1  UNL1        0.0294
      6 C          63.6247   91.2187   12.6535 C.ar    1  UNL1        0.0023
      7 C          62.8396   90.4602   11.6248 C.ar    1  UNL1        0.0014
      8 C          62.7516   88.9647   11.7011 C.ar    1  UNL1        0.0173
      9 C          62.0568   87.9548   10.8366 C.ar    1  UNL1        0.0804
     10 C          61.1965   87.7861    9.6195 C.ar    1  UNL1        0.1178
     11 N          60.9326   86.3207    9.4380 N.ar    1  UNL1       -0.2223
     12 C          61.6298   85.5837   10.5430 C.ar    1  UNL1        0.1788
     13 N          62.3246   86.5937   11.4074 N.ar    1  UNL1       -0.3068
     14 C          63.6922   85.6594   13.5055 C.3     1  UNL1        0.0565
     15 O          61.8223   84.9200   15.1507 O.3     1  UNL1       -0.3844
     16 C          62.7480   84.6097   14.0119 C.3     1  UNL1        0.1127
     17 H          61.9617   85.8351   15.4405 H       1  UNL1        0.2103
     18 C          62.7295   83.2496   13.3795 C.3     1  UNL1        0.0274
     19 C          63.1989   83.0733   11.9659 C.3     1  UNL1        0.0080
     20 C          63.1804   81.7133   11.3335 C.3     1  UNL1        0.0666
     21 C          62.6924   80.5295   12.1148 C.3     1  UNL1        0.2639
     22 F          62.3229   79.1138   12.4450 F       1  UNL1       -0.2043
     23 F          63.0336   79.8616   10.8158 F       1  UNL1       -0.2043
     24 C          62.2229   80.7057   13.5285 C.3     1  UNL1        0.0666
     25 C          62.2415   82.0658   14.1609 C.3     1  UNL1        0.0080
@<TRIPOS>BOND
     1    15    16    1
     2    16    14    1
     3    14     1    1
     4     1     2    1
     5     2     3   ar
     6     3     4    1
     7     3     5   ar
     8     5     6   ar
     9     6     7   ar
    10     7     8   ar
    11     8     9    1
    12     9    10   ar
    13    10    11   ar
    14    11    12   ar
    15    12    13   ar
    16    16    18    1
    17    18    19    1
    18    19    20    1
    19    20    21    1
    20    21    22    1
    21    21    23    1
    22    21    24    1
    23    24    25    1
    24    13     1    1
    25    25    18    1
    26     8     2   ar
    27    13     9   ar
    28    15    17    1
@<TRIPOS>MOLECULE
*****
 25 28 0 0 0
SMALL
GASTEIGER

@<TRIPOS>ATOM
      1 C          61.6798   88.3610   11.0813 C.3     1  UNL1        0.1140
      2 C          60.8835   88.0700    9.8437 C.ar    1  UNL1        0.0273
      3 C          60.0585   88.9492    8.9513 C.ar    1  UNL1        0.1379
      4 F          59.9305   90.4132    9.2512 F       1  UNL1       -0.2044
      5 C          59.3614   88.3640    7.7589 C.ar    1  UNL1        0.0294
      6 C          59.4894   86.9000    7.4590 C.ar    1  UNL1        0.0023
      7 C          60.3145   86.0209    8.3514 C.ar    1  UNL1        0.0014
      8 C          61.0116   86.6059    9.5438 C.ar    1  UNL1        0.0173
      9 C          61.8869   85.9920   10.5959 C.ar    1  UNL1        0.0804
     10 C          62.5070   84.7077   11.0608 C.ar    1  UNL1        0.1178
     11 N          63.3032   84.9987   12.2982 N.ar    1  UNL1       -0.2223
     12 C          63.1753   86.4628   12.5982 C.ar    1  UNL1        0.1788
     13 N          62.2999   87.0767   11.5461 N.ar    1  UNL1       -0.3068
     14 C          61.8297   89.7010   11.7385 C.3     1  UNL1        0.0565
     15 O          62.7706   91.2369    9.8661 O.3     1  UNL1       -0.3844
     16 C          62.8701   90.6643   11.2490 C.3     1  UNL1        0.1127
     17 H          61.9818   90.8837    9.4258 H       1  UNL1        0.2103
     18 C          64.0099   91.0551   12.1423 C.3     1  UNL1        0.0274
     19 C          64.9699   92.1232   11.7095 C.3     1  UNL1        0.0080
     20 C          66.1098   92.5140   12.6029 C.3     1  UNL1        0.0666
     21 C          66.2896   91.8366   13.9290 C.3     1  UNL1        0.2639
     22 F          66.8731   91.4881   15.2662 F       1  UNL1       -0.2043
     23 F          67.4523   92.7837   13.9605 F       1  UNL1       -0.2043
     24 C          65.3295   90.7684   14.3619 C.3     1  UNL1        0.0666
     25 C          64.1897   90.3776   13.4686 C.3     1  UNL1        0.0080
@<TRIPOS>BOND
     1    15    16    1
     2    16    14    1
     3    14     1    1
     4     1     2    1
     5     2     3   ar
     6     3     4    1
     7     3     5   ar
     8     5     6   ar
     9     6     7   ar
    10     7     8   ar
    11     8     9    1
    12     9    10   ar
    13    10    11   ar
    14    11    12   ar
    15    12    13   ar
    16    16    18    1
    17    18    19    1
    18    19    20    1
    19    20    21    1
    20    21    22    1
    21    21    23    1
    22    21    24    1
    23    24    25    1
    24    13     1    1
    25    25    18    1
    26     8     2   ar
    27    13     9   ar
    28    15    17    1
@<TRIPOS>MOLECULE
*****
 25 28 0 0 0
SMALL
GASTEIGER

@<TRIPOS>ATOM
      1 C          61.7859   87.1133   10.9561 C.3     1  UNL1        0.1140
      2 C          62.4105   88.4316   11.3055 C.ar    1  UNL1        0.0273
      3 C          63.3737   88.8316   12.3837 C.ar    1  UNL1        0.1379
      4 F          63.8784   87.8074   13.3562 F       1  UNL1       -0.2044
      5 C          63.8320   90.2561   12.4891 C.ar    1  UNL1        0.0294
      6 C          63.3272   91.2803   11.5165 C.ar    1  UNL1        0.0023
      7 C          62.3640   90.8803   10.4384 C.ar    1  UNL1        0.0014
      8 C          61.9057   89.4559   10.3329 C.ar    1  UNL1        0.0173
      9 C          60.9692   88.7707    9.3824 C.ar    1  UNL1        0.0804
     10 C          60.0784   88.9803    8.1939 C.ar    1  UNL1        0.1178
     11 N          59.4539   87.6620    7.8446 N.ar    1  UNL1       -0.2223
     12 C          59.9586   86.6377    8.8172 C.ar    1  UNL1        0.1788
     13 N          60.8952   87.3229    9.7676 N.ar    1  UNL1       -0.3068
     14 C          62.0124   85.8136   11.6699 C.3     1  UNL1        0.0565
     15 O          63.3156   84.8945    9.6188 O.3     1  UNL1       -0.3844
     16 C          62.6775   84.6730   10.9582 C.3     1  UNL1        0.1127
     17 H          63.2095   85.8232    9.3598 H       1  UNL1        0.2103
     18 C          62.7045   83.3108   11.5857 C.3     1  UNL1        0.0274
     19 C          62.5861   83.1683   13.0742 C.3     1  UNL1        0.0080
     20 C          62.6131   81.8062   13.7017 C.3     1  UNL1        0.0666
     21 C          62.7585   80.5865   12.8408 C.3     1  UNL1        0.2639
     22 F          62.8771   79.1434   12.4495 F       1  UNL1       -0.2043
     23 F          62.6812   79.9429   14.1934 F       1  UNL1       -0.2043
     24 C          62.8769   80.7290   11.3522 C.3     1  UNL1        0.0666
     25 C          62.8499   82.0912   10.7247 C.3     1  UNL1        0.0080
@<TRIPOS>BOND
     1    15    16    1
     2    16    14    1
     3    14     1    1
     4     1     2    1
     5     2     3   ar
     6     3     4    1
     7     3     5   ar
     8     5     6   ar
     9     6     7   ar
    10     7     8   ar
    11     8     9    1
    12     9    10   ar
    13    10    11   ar
    14    11    12   ar
    15    12    13   ar
    16    16    18    1
    17    18    19    1
    18    19    20    1
    19    20    21    1
    20    21    22    1
    21    21    23    1
    22    21    24    1
    23    24    25    1
    24    13     1    1
    25    25    18    1
    26     8     2   ar
    27    13     9   ar
    28    15    17    1
@<TRIPOS>MOLECULE
*****
 25 28 0 0 0
SMALL
GASTEIGER

@<TRIPOS>ATOM
      1 C          61.7678   88.4279   11.0092 C.3     1  UNL1        0.1140
      2 C          62.2927   87.0707   11.3736 C.ar    1  UNL1        0.0273
      3 C          63.1500   86.5980   12.5101 C.ar    1  UNL1        0.1379
      4 F          63.6356   87.5745   13.5398 F       1  UNL1       -0.2044
      5 C          63.5218   85.1487   12.6167 C.ar    1  UNL1        0.0294
      6 C          63.0362   84.1722   11.5868 C.ar    1  UNL1        0.0023
      7 C          62.1789   84.6449   10.4504 C.ar    1  UNL1        0.0014
      8 C          61.8071   86.0941   10.3437 C.ar    1  UNL1        0.0173
      9 C          60.9822   86.8477    9.3429 C.ar    1  UNL1        0.0804
     10 C          60.1723   86.7099    8.0879 C.ar    1  UNL1        0.1178
     11 N          59.6475   88.0670    7.7236 N.ar    1  UNL1       -0.2223
     12 C          60.1330   89.0436    8.7534 C.ar    1  UNL1        0.1788
     13 N          60.9579   88.2900    9.7542 N.ar    1  UNL1       -0.3068
     14 C          62.0103   89.6996   11.7669 C.3     1  UNL1        0.0565
     15 O          62.8331   91.2435    9.8461 O.3     1  UNL1       -0.3844
     16 C          62.9840   90.7120   11.2407 C.3     1  UNL1        0.1127
     17 H          62.0621   90.8323    9.4250 H       1  UNL1        0.2103
     18 C          64.1085   91.1931   12.1091 C.3     1  UNL1        0.0274
     19 C          65.0440   92.2523   11.6063 C.3     1  UNL1        0.0080
     20 C          66.1685   92.7334   12.4747 C.3     1  UNL1        0.0666
     21 C          66.3575   92.1552   13.8458 C.3     1  UNL1        0.2639
     22 F          66.9418   91.9161   15.2064 F       1  UNL1       -0.2043
     23 F          67.4959   93.1314   13.8155 F       1  UNL1       -0.2043
     24 C          65.4219   91.0960   14.3486 C.3     1  UNL1        0.0666
     25 C          64.2974   90.6149   13.4802 C.3     1  UNL1        0.0080
@<TRIPOS>BOND
     1    15    16    1
     2    16    14    1
     3    14     1    1
     4     1     2    1
     5     2     3   ar
     6     3     4    1
     7     3     5   ar
     8     5     6   ar
     9     6     7   ar
    10     7     8   ar
    11     8     9    1
    12     9    10   ar
    13    10    11   ar
    14    11    12   ar
    15    12    13   ar
    16    16    18    1
    17    18    19    1
    18    19    20    1
    19    20    21    1
    20    21    22    1
    21    21    23    1
    22    21    24    1
    23    24    25    1
    24    13     1    1
    25    25    18    1
    26     8     2   ar
    27    13     9   ar
    28    15    17    1
@<TRIPOS>MOLECULE
*****
 25 28 0 0 0
SMALL
GASTEIGER

@<TRIPOS>ATOM
      1 C          63.4972   86.9094   12.8535 C.3     1  UNL1        0.1140
      2 C          62.6295   87.1125   11.6468 C.ar    1  UNL1        0.0273
      3 C          62.0228   86.1466   10.6727 C.ar    1  UNL1        0.1379
      4 F          62.2574   84.6738   10.8322 F       1  UNL1       -0.2044
      5 C          61.1814   86.6537    9.5391 C.ar    1  UNL1        0.0294
      6 C          60.9469   88.1265    9.3796 C.ar    1  UNL1        0.0023
      7 C          61.5536   89.0925   10.3537 C.ar    1  UNL1        0.0014
      8 C          62.3949   88.5855   11.4873 C.ar    1  UNL1        0.0173
      9 C          63.1176   89.2927   12.5953 C.ar    1  UNL1        0.0804
     10 C          63.4192   90.6400   13.1815 C.ar    1  UNL1        0.1178
     11 N          64.2868   90.4368   14.3881 N.ar    1  UNL1       -0.2223
     12 C          64.5214   88.9639   14.5477 C.ar    1  UNL1        0.1788
     13 N          63.7988   88.2568   13.4396 N.ar    1  UNL1       -0.3068
     14 C          63.9787   85.5904   13.3812 C.3     1  UNL1        0.0565
     15 O          62.3478   85.2567   15.3759 O.3     1  UNL1       -0.3844
     16 C          63.0501   84.7130   14.1671 C.3     1  UNL1        0.1127
     17 H          62.6030   86.1831   15.5087 H       1  UNL1        0.2103
     18 C          62.8237   83.2917   13.7442 C.3     1  UNL1        0.0274
     19 C          62.0216   82.3693   14.6134 C.3     1  UNL1        0.0080
     20 C          61.7952   80.9480   14.1905 C.3     1  UNL1        0.0666
     21 C          62.3710   80.4492   12.8984 C.3     1  UNL1        0.2639
     22 F          62.7090   79.5178   11.7724 F       1  UNL1       -0.2043
     23 F          61.6862   79.2033   13.3767 F       1  UNL1       -0.2043
     24 C          63.1732   81.3717   12.0291 C.3     1  UNL1        0.0666
     25 C          63.3996   82.7929   12.4520 C.3     1  UNL1        0.0080
@<TRIPOS>BOND
     1    15    16    1
     2    16    14    1
     3    14     1    1
     4     1     2    1
     5     2     3   ar
     6     3     4    1
     7     3     5   ar
     8     5     6   ar
     9     6     7   ar
    10     7     8   ar
    11     8     9    1
    12     9    10   ar
    13    10    11   ar
    14    11    12   ar
    15    12    13   ar
    16    16    18    1
    17    18    19    1
    18    19    20    1
    19    20    21    1
    20    21    22    1
    21    21    23    1
    22    21    24    1
    23    24    25    1
    24    13     1    1
    25    25    18    1
    26     8     2   ar
    27    13     9   ar
    28    15    17    1
@<TRIPOS>MOLECULE
*****
 25 28 0 0 0
SMALL
GASTEIGER

@<TRIPOS>ATOM
      1 C          62.8607   88.8931   12.3164 C.3     1  UNL1        0.1140
      2 C          62.2387   88.1312   11.1838 C.ar    1  UNL1        0.0273
      3 C          61.4714   88.5784    9.9750 C.ar    1  UNL1        0.1379
      4 F          61.2144   90.0386    9.7478 F       1  UNL1       -0.2044
      5 C          60.9613   87.5654    8.9934 C.ar    1  UNL1        0.0294
      6 C          61.2184   86.1052    9.2207 C.ar    1  UNL1        0.0023
      7 C          61.9856   85.6580   10.4296 C.ar    1  UNL1        0.0014
      8 C          62.4958   86.6709   11.4112 C.ar    1  UNL1        0.0173
      9 C          63.2767   86.5304   12.6841 C.ar    1  UNL1        0.0804
     10 C          63.9182   85.5410   13.6113 C.ar    1  UNL1        0.1178
     11 N          64.5402   86.3029   14.7438 N.ar    1  UNL1       -0.2223
     12 C          64.2831   87.7632   14.5166 C.ar    1  UNL1        0.1788
     13 N          63.5022   87.9038   13.2436 N.ar    1  UNL1       -0.3068
     14 C          62.8441   90.3828   12.4911 C.3     1  UNL1        0.0565
     15 O          64.2720   91.4102   10.5791 O.3     1  UNL1       -0.3844
     16 C          64.0168   91.2036   12.0428 C.3     1  UNL1        0.1127
     17 H          63.5913   90.9496   10.0641 H       1  UNL1        0.2103
     18 C          64.9343   91.8179   13.0581 C.3     1  UNL1        0.0274
     19 C          64.9766   91.2757   14.4560 C.3     1  UNL1        0.0080
     20 C          65.8941   91.8900   15.4713 C.3     1  UNL1        0.0666
     21 C          66.7694   93.0465   15.0887 C.3     1  UNL1        0.2639
     22 F          67.7813   94.1474   15.2056 F       1  UNL1       -0.2043
     23 F          67.1630   92.8866   16.5273 F       1  UNL1       -0.2043
     24 C          66.7272   93.5887   13.6907 C.3     1  UNL1        0.0666
     25 C          65.8096   92.9744   12.6754 C.3     1  UNL1        0.0080
@<TRIPOS>BOND
     1    15    16    1
     2    16    14    1
     3    14     1    1
     4     1     2    1
     5     2     3   ar
     6     3     4    1
     7     3     5   ar
     8     5     6   ar
     9     6     7   ar
    10     7     8   ar
    11     8     9    1
    12     9    10   ar
    13    10    11   ar
    14    11    12   ar
    15    12    13   ar
    16    16    18    1
    17    18    19    1
    18    19    20    1
    19    20    21    1
    20    21    22    1
    21    21    23    1
    22    21    24    1
    23    24    25    1
    24    13     1    1
    25    25    18    1
    26     8     2   ar
    27    13     9   ar
    28    15    17    1
@<TRIPOS>MOLECULE
*****
 25 28 0 0 0
SMALL
GASTEIGER

@<TRIPOS>ATOM
      1 C          62.0879   86.5798   10.2192 C.3     1  UNL1        0.1140
      2 C          62.0543   87.9793   10.7582 C.ar    1  UNL1        0.0273
      3 C          62.8323   88.6538   11.8489 C.ar    1  UNL1        0.1379
      4 F          63.8671   87.8862   12.6169 F       1  UNL1       -0.2044
      5 C          62.5754   90.0960   12.1717 C.ar    1  UNL1        0.0294
      6 C          61.5405   90.8636   11.4037 C.ar    1  UNL1        0.0023
      7 C          60.7625   90.1891   10.3130 C.ar    1  UNL1        0.0014
      8 C          61.0194   88.7470    9.9901 C.ar    1  UNL1        0.0173
      9 C          60.4135   87.8220    8.9766 C.ar    1  UNL1        0.0804
     10 C          59.3994   87.7248    7.8756 C.ar    1  UNL1        0.1178
     11 N          59.4331   86.3253    7.3368 N.ar    1  UNL1       -0.2223
     12 C          60.4679   85.5576    8.1047 C.ar    1  UNL1        0.1788
     13 N          61.0738   86.4826    9.1182 N.ar    1  UNL1       -0.3068
     14 C          62.9791   85.4721   10.6974 C.3     1  UNL1        0.0565
     15 O          62.4780   85.6459   13.2408 O.3     1  UNL1       -0.3844
     16 C          62.7115   84.8107   12.0168 C.3     1  UNL1        0.1127
     17 H          62.5340   86.5856   13.0066 H       1  UNL1        0.2103
     18 C          62.6772   83.3142   12.1124 C.3     1  UNL1        0.0274
     19 C          63.0325   82.4781   10.9187 C.3     1  UNL1        0.0080
     20 C          62.9982   80.9816   11.0143 C.3     1  UNL1        0.0666
     21 C          62.6088   80.3210   12.3034 C.3     1  UNL1        0.2639
     22 F          62.3061   79.2398   13.2981 F       1  UNL1       -0.2043
     23 F          62.8589   79.1095   11.4552 F       1  UNL1       -0.2043
     24 C          62.2535   81.1571   13.4972 C.3     1  UNL1        0.0666
     25 C          62.2877   82.6537   13.4016 C.3     1  UNL1        0.0080
@<TRIPOS>BOND
     1    15    16    1
     2    16    14    1
     3    14     1    1
     4     1     2    1
     5     2     3   ar
     6     3     4    1
     7     3     5   ar
     8     5     6   ar
     9     6     7   ar
    10     7     8   ar
    11     8     9    1
    12     9    10   ar
    13    10    11   ar
    14    11    12   ar
    15    12    13   ar
    16    16    18    1
    17    18    19    1
    18    19    20    1
    19    20    21    1
    20    21    22    1
    21    21    23    1
    22    21    24    1
    23    24    25    1
    24    13     1    1
    25    25    18    1
    26     8     2   ar
    27    13     9   ar
    28    15    17    1
@<TRIPOS>MOLECULE
*****
 25 28 0 0 0
SMALL
GASTEIGER

@<TRIPOS>ATOM
      1 C          62.8457   84.7197   11.7466 C.3     1  UNL1        0.1140
      2 C          63.4861   85.3502   12.9477 C.ar    1  UNL1        0.0273
      3 C          63.7194   86.7832   13.3245 C.ar    1  UNL1        0.1379
      4 F          63.2718   87.8823   12.4073 F       1  UNL1       -0.2044
      5 C          64.4005   87.1170   14.6187 C.ar    1  UNL1        0.0294
      6 C          64.8481   86.0178   15.5359 C.ar    1  UNL1        0.0023
      7 C          64.6147   84.5848   15.1591 C.ar    1  UNL1        0.0014
      8 C          63.9338   84.2510   13.8649 C.ar    1  UNL1        0.0173
      9 C          63.5701   82.9411   13.2309 C.ar    1  UNL1        0.0804
     10 C          63.6220   81.4523   13.4059 C.ar    1  UNL1        0.1178
     11 N          62.9816   80.8218   12.2049 N.ar    1  UNL1       -0.2223
     12 C          62.5339   81.9210   11.2876 C.ar    1  UNL1        0.1788
     13 N          62.8976   83.2308   11.9217 N.ar    1  UNL1       -0.3068
     14 C          62.2569   85.4498   10.5761 C.3     1  UNL1        0.0565
     15 O          60.5385   86.5968   12.1515 O.3     1  UNL1       -0.3844
     16 C          61.1378   86.4260   10.7870 C.3     1  UNL1        0.1127
     17 H          60.9862   86.0064   12.7774 H       1  UNL1        0.2103
     18 C          60.6179   87.2316    9.6334 C.3     1  UNL1        0.0274
     19 C          60.7738   88.7234    9.6296 C.3     1  UNL1        0.0080
     20 C          60.2539   89.5290    8.4760 C.3     1  UNL1        0.0666
     21 C          59.5781   88.8427    7.3262 C.3     1  UNL1        0.2639
     22 F          58.8711   88.6514    6.0172 F       1  UNL1       -0.2043
     23 F          59.4885   90.2681    6.8679 F       1  UNL1       -0.2043
     24 C          59.4221   87.3508    7.3299 C.3     1  UNL1        0.0666
     25 C          59.9420   86.5452    8.4835 C.3     1  UNL1        0.0080
@<TRIPOS>BOND
     1    15    16    1
     2    16    14    1
     3    14     1    1
     4     1     2    1
     5     2     3   ar
     6     3     4    1
     7     3     5   ar
     8     5     6   ar
     9     6     7   ar
    10     7     8   ar
    11     8     9    1
    12     9    10   ar
    13    10    11   ar
    14    11    12   ar
    15    12    13   ar
    16    16    18    1
    17    18    19    1
    18    19    20    1
    19    20    21    1
    20    21    22    1
    21    21    23    1
    22    21    24    1
    23    24    25    1
    24    13     1    1
    25    25    18    1
    26     8     2   ar
    27    13     9   ar
    28    15    17    1
@<TRIPOS>MOLECULE
*****
 25 28 0 0 0
SMALL
GASTEIGER

@<TRIPOS>ATOM
      1 C          62.4979   88.3658   12.4257 C.3     1  UNL1        0.1140
      2 C          63.1006   87.1021   12.9643 C.ar    1  UNL1        0.0273
      3 C          62.8005   85.6560   12.7027 C.ar    1  UNL1        0.1379
      4 F          61.7142   85.2777   11.7401 F       1  UNL1       -0.2044
      5 C          63.5869   84.5881   13.4037 C.ar    1  UNL1        0.0294
      6 C          64.6733   84.9665   14.3662 C.ar    1  UNL1        0.0023
      7 C          64.9734   86.4126   14.6279 C.ar    1  UNL1        0.0014
      8 C          64.1870   87.4805   13.9270 C.ar    1  UNL1        0.0173
      9 C          64.2558   88.9779   13.9832 C.ar    1  UNL1        0.0804
     10 C          64.9697   90.1371   14.6129 C.ar    1  UNL1        0.1178
     11 N          64.3670   91.4006   14.0742 N.ar    1  UNL1       -0.2223
     12 C          63.2806   91.0223   13.1116 C.ar    1  UNL1        0.1788
     13 N          63.2118   89.5250   13.0553 N.ar    1  UNL1       -0.3068
     14 C          61.3779   88.4545   11.4318 C.3     1  UNL1        0.0565
     15 O          61.9886   89.9906    9.4274 O.3     1  UNL1       -0.3844
     16 C          61.6816   88.6274    9.9731 C.3     1  UNL1        0.1127
     17 H          61.9491   90.6424   10.1446 H       1  UNL1        0.2103
     18 C          61.6782   87.4373    9.0601 C.3     1  UNL1        0.0274
     19 C          60.4486   87.1023    8.2691 C.3     1  UNL1        0.0080
     20 C          60.4452   85.9122    7.3560 C.3     1  UNL1        0.0666
     21 C          61.6715   85.0571    7.2340 C.3     1  UNL1        0.2639
     22 F          62.5804   83.9525    6.7828 F       1  UNL1       -0.2043
     23 F          60.7575   84.3385    6.2863 F       1  UNL1       -0.2043
     24 C          62.9013   85.3921    8.0250 C.3     1  UNL1        0.0666
     25 C          62.9046   86.5822    8.9380 C.3     1  UNL1        0.0080
@<TRIPOS>BOND
     1    15    16    1
     2    16    14    1
     3    14     1    1
     4     1     2    1
     5     2     3   ar
     6     3     4    1
     7     3     5   ar
     8     5     6   ar
     9     6     7   ar
    10     7     8   ar
    11     8     9    1
    12     9    10   ar
    13    10    11   ar
    14    11    12   ar
    15    12    13   ar
    16    16    18    1
    17    18    19    1
    18    19    20    1
    19    20    21    1
    20    21    22    1
    21    21    23    1
    22    21    24    1
    23    24    25    1
    24    13     1    1
    25    25    18    1
    26     8     2   ar
    27    13     9   ar
    28    15    17    1
