@<TRIPOS>MOLECULE
*****
 20 21 0 0 0
SMALL
GASTEIGER

@<TRIPOS>ATOM
      1 C          60.1602   88.6351    8.5448 C.ar    1  UNL1        0.1418
      2 C          59.9500   87.2114    8.1219 C.ar    1  UNL1        0.0371
      3 C          60.5669   86.0954    8.9118 C.ar    1  UNL1        0.0061
      4 C          61.3940   86.4031   10.1247 C.ar    1  UNL1        0.0343
      5 C          61.6042   87.8267   10.5476 C.ar    1  UNL1        0.1417
      6 C          60.9874   88.9427    9.7577 C.ar    1  UNL1        0.0737
      7 C          59.3578   89.6079    6.2733 C.3     1  UNL1        0.2525
      8 O          59.5434   89.7511    7.7549 O.3     1  UNL1       -0.4713
      9 C          62.0109   85.2871   10.9147 C.2     1  UNL1        0.0063
     10 C          63.1205   84.4715   10.3201 C.2     1  UNL1        0.0436
     11 C          63.7374   83.3555   11.1100 C.2     1  UNL1        0.2111
     12 O          64.9469   82.6425   10.5823 O.2     1  UNL1       -0.2850
     13 C          63.1446   82.9525   12.4277 C.ar    1  UNL1        0.0961
     14 C          62.2963   81.7413   12.6794 C.ar    1  UNL1        0.0218
     15 C          61.9234   81.7301   14.1322 C.ar    1  UNL1        0.0200
     16 C          62.5414   82.9345   14.7786 C.ar    1  UNL1        0.0725
     17 N          63.2961   83.6900   13.7251 N.ar    1  UNL1       -0.3495
     18 H          63.8020   84.5235   13.8613 H       1  UNL1        0.1661
     19 O          62.4314   88.1345   11.7606 O.3     1  UNL1       -0.4713
     20 C          62.9205   89.5321   12.0000 C.3     1  UNL1        0.2525
@<TRIPOS>BOND
     1     7     8    1
     2     8     1    1
     3     1     2   ar
     4     2     3   ar
     5     3     4   ar
     6     4     9    1
     7     9    10    2
     8    10    11    1
     9    11    12    2
    10    11    13    1
    11    13    14   ar
    12    14    15   ar
    13    15    16   ar
    14    16    17   ar
    15     4     5   ar
    16     5    19    1
    17    19    20    1
    18     5     6   ar
    19     6     1   ar
    20    17    13   ar
    21    17    18    1
@<TRIPOS>MOLECULE
*****
 20 21 0 0 0
SMALL
GASTEIGER

@<TRIPOS>ATOM
      1 C          66.6027   92.2451   13.6143 C.ar    1  UNL1        0.1418
      2 C          65.9816   92.6892   12.3232 C.ar    1  UNL1        0.0371
      3 C          64.7141   92.0481   11.8411 C.ar    1  UNL1        0.0061
      4 C          64.0677   90.9629   12.6501 C.ar    1  UNL1        0.0343
      5 C          64.6888   90.5188   13.9411 C.ar    1  UNL1        0.1417
      6 C          65.9563   91.1599   14.4232 C.ar    1  UNL1        0.0737
      7 C          67.9550   93.4218   15.4949 C.3     1  UNL1        0.2525
      8 O          67.8702   92.8862   14.0964 O.3     1  UNL1       -0.4713
      9 C          62.8002   90.3218   12.1680 C.2     1  UNL1        0.0063
     10 C          62.3635   90.5010   10.7442 C.2     1  UNL1        0.0436
     11 C          61.0960   89.8599   10.2621 C.2     1  UNL1        0.2111
     12 O          59.7926   90.5927   10.3808 O.2     1  UNL1       -0.2850
     13 C          61.1319   88.4859    9.6612 C.ar    1  UNL1        0.0961
     14 C          62.2944   87.5385    9.6961 C.ar    1  UNL1        0.0218
     15 C          61.8926   86.2852    8.9765 C.ar    1  UNL1        0.0200
     16 C          60.4819   86.4581    8.4969 C.ar    1  UNL1        0.0725
     17 N          60.0118   87.8182    8.9201 N.ar    1  UNL1       -0.3495
     18 H          59.1239   88.2047    8.7426 H       1  UNL1        0.1661
     19 O          64.0424   89.4336   14.7502 O.3     1  UNL1       -0.4713
     20 C          63.3554   89.7683   16.0409 C.3     1  UNL1        0.2525
@<TRIPOS>BOND
     1     7     8    1
     2     8     1    1
     3     1     2   ar
     4     2     3   ar
     5     3     4   ar
     6     4     9    1
     7     9    10    2
     8    10    11    1
     9    11    12    2
    10    11    13    1
    11    13    14   ar
    12    14    15   ar
    13    15    16   ar
    14    16    17   ar
    15     4     5   ar
    16     5    19    1
    17    19    20    1
    18     5     6   ar
    19     6     1   ar
    20    17    13   ar
    21    17    18    1
@<TRIPOS>MOLECULE
*****
 20 21 0 0 0
SMALL
GASTEIGER

@<TRIPOS>ATOM
      1 C          62.0445   88.2842   10.6451 C.ar    1  UNL1        0.1418
      2 C          62.1205   89.6466   10.0222 C.ar    1  UNL1        0.0371
      3 C          62.8737   90.7455   10.7115 C.ar    1  UNL1        0.0061
      4 C          63.5510   90.4820   12.0236 C.ar    1  UNL1        0.0343
      5 C          63.4749   89.1196   12.6465 C.ar    1  UNL1        0.1417
      6 C          62.7217   88.0207   11.9572 C.ar    1  UNL1        0.0737
      7 C          62.0009   86.2775    8.9955 C.3     1  UNL1        0.2525
      8 O          61.2912   87.1854    9.9558 O.3     1  UNL1       -0.4713
      9 C          64.3042   91.5808   12.7129 C.2     1  UNL1        0.0063
     10 C          65.4630   92.2410   12.0264 C.2     1  UNL1        0.0436
     11 C          66.2162   93.3398   12.7157 C.2     1  UNL1        0.2111
     12 O          66.2121   94.7260   12.1425 O.2     1  UNL1       -0.2850
     13 C          66.9736   93.0525   13.9782 C.ar    1  UNL1        0.0961
     14 C          66.3973   93.0137   15.3626 C.ar    1  UNL1        0.0218
     15 C          67.5077   92.6908   16.3180 C.ar    1  UNL1        0.0200
     16 C          68.7702   92.5300   15.5240 C.ar    1  UNL1        0.0725
     17 N          68.4401   92.7535   14.0780 N.ar    1  UNL1       -0.3495
     18 H          69.0745   92.7114   13.3264 H       1  UNL1        0.1661
     19 O          64.1522   88.8560   13.9588 O.3     1  UNL1       -0.4713
     20 C          64.2463   87.4549   14.4861 C.3     1  UNL1        0.2525
@<TRIPOS>BOND
     1     7     8    1
     2     8     1    1
     3     1     2   ar
     4     2     3   ar
     5     3     4   ar
     6     4     9    1
     7     9    10    2
     8    10    11    1
     9    11    12    2
    10    11    13    1
    11    13    14   ar
    12    14    15   ar
    13    15    16   ar
    14    16    17   ar
    15     4     5   ar
    16     5    19    1
    17    19    20    1
    18     5     6   ar
    19     6     1   ar
    20    17    13   ar
    21    17    18    1
@<TRIPOS>MOLECULE
*****
 20 21 0 0 0
SMALL
GASTEIGER

@<TRIPOS>ATOM
      1 C          63.0192   81.9085   13.6023 C.ar    1  UNL1        0.1418
      2 C          62.8424   82.0875   12.1235 C.ar    1  UNL1        0.0371
      3 C          62.7494   83.4666   11.5408 C.ar    1  UNL1        0.0061
      4 C          62.8332   84.6666   12.4368 C.ar    1  UNL1        0.0343
      5 C          63.0099   84.4876   13.9156 C.ar    1  UNL1        0.1417
      6 C          63.1029   83.1085   14.4983 C.ar    1  UNL1        0.0737
      7 C          62.3876   79.3893   13.5330 C.3     1  UNL1        0.2525
      8 O          63.1121   80.5294   14.1850 O.3     1  UNL1       -0.4713
      9 C          62.7402   86.0457   11.8541 C.2     1  UNL1        0.0063
     10 C          61.5409   86.4379   11.0431 C.2     1  UNL1        0.0436
     11 C          61.4479   87.8170   10.4604 C.2     1  UNL1        0.2111
     12 O          62.2190   88.9457   11.0779 O.2     1  UNL1       -0.2850
     13 C          60.5837   88.0673    9.2601 C.ar    1  UNL1        0.0961
     14 C          59.7859   87.0366    8.5177 C.ar    1  UNL1        0.0218
     15 C          59.0748   87.7245    7.3903 C.ar    1  UNL1        0.0200
     16 C          59.4330   89.1804    7.4360 C.ar    1  UNL1        0.0725
     17 N          60.3656   89.3922    8.5916 N.ar    1  UNL1       -0.3495
     18 H          60.7645   90.2502    8.8635 H       1  UNL1        0.1661
     19 O          63.0937   85.6876   14.8117 O.3     1  UNL1       -0.4713
     20 C          63.8217   85.5974   16.1200 C.3     1  UNL1        0.2525
@<TRIPOS>BOND
     1     7     8    1
     2     8     1    1
     3     1     2   ar
     4     2     3   ar
     5     3     4   ar
     6     4     9    1
     7     9    10    2
     8    10    11    1
     9    11    12    2
    10    11    13    1
    11    13    14   ar
    12    14    15   ar
    13    15    16   ar
    14    16    17   ar
    15     4     5   ar
    16     5    19    1
    17    19    20    1
    18     5     6   ar
    19     6     1   ar
    20    17    13   ar
    21    17    18    1
@<TRIPOS>MOLECULE
*****
 20 21 0 0 0
SMALL
GASTEIGER

@<TRIPOS>ATOM
      1 C          63.6138   83.9321   13.8957 C.ar    1  UNL1        0.1418
      2 C          64.4370   84.5436   14.9905 C.ar    1  UNL1        0.0371
      3 C          64.6475   86.0282   15.0307 C.ar    1  UNL1        0.0061
      4 C          64.0349   86.9014   13.9761 C.ar    1  UNL1        0.0343
      5 C          63.2117   86.2899   12.8813 C.ar    1  UNL1        0.1417
      6 C          63.0012   84.8053   12.8412 C.ar    1  UNL1        0.0737
      7 C          62.0832   81.8658   14.2663 C.3     1  UNL1        0.2525
      8 O          63.4033   82.4475   13.8556 O.3     1  UNL1       -0.4713
      9 C          64.2454   88.3860   14.0163 C.2     1  UNL1        0.0063
     10 C          63.8927   89.1603   15.2516 C.2     1  UNL1        0.0436
     11 C          64.1032   90.6449   15.2918 C.2     1  UNL1        0.2111
     12 O          63.4065   91.4734   16.3301 O.2     1  UNL1       -0.2850
     13 C          65.0105   91.3011   14.2936 C.ar    1  UNL1        0.0961
     14 C          64.6223   91.7654   12.9211 C.ar    1  UNL1        0.0218
     15 C          65.8371   92.3594   12.2718 C.ar    1  UNL1        0.0200
     16 C          66.9761   92.2621   13.2431 C.ar    1  UNL1        0.0725
     17 N          66.4652   91.6080   14.4926 N.ar    1  UNL1       -0.3495
     18 H          66.9922   91.4142   15.3013 H       1  UNL1        0.1661
     19 O          62.5991   87.1631   11.8267 O.3     1  UNL1       -0.4713
     20 C          61.5132   86.6233   10.9439 C.3     1  UNL1        0.2525
@<TRIPOS>BOND
     1     7     8    1
     2     8     1    1
     3     1     2   ar
     4     2     3   ar
     5     3     4   ar
     6     4     9    1
     7     9    10    2
     8    10    11    1
     9    11    12    2
    10    11    13    1
    11    13    14   ar
    12    14    15   ar
    13    15    16   ar
    14    16    17   ar
    15     4     5   ar
    16     5    19    1
    17    19    20    1
    18     5     6   ar
    19     6     1   ar
    20    17    13   ar
    21    17    18    1
@<TRIPOS>MOLECULE
*****
 20 21 0 0 0
SMALL
GASTEIGER

@<TRIPOS>ATOM
      1 C          63.0868   82.0883   13.4551 C.ar    1  UNL1        0.1418
      2 C          62.7254   82.2228   12.0056 C.ar    1  UNL1        0.0371
      3 C          62.5799   83.5838   11.3920 C.ar    1  UNL1        0.0061
      4 C          62.7957   84.8103   12.2280 C.ar    1  UNL1        0.0343
      5 C          63.1571   84.6759   13.6775 C.ar    1  UNL1        0.1417
      6 C          63.3026   83.3149   14.2911 C.ar    1  UNL1        0.0737
      7 C          62.3705   79.5948   13.5946 C.3     1  UNL1        0.2525
      8 O          63.2323   80.7273   14.0687 O.3     1  UNL1       -0.4713
      9 C          62.6502   86.1713   11.6144 C.2     1  UNL1        0.0063
     10 C          61.2879   86.6993   11.2751 C.2     1  UNL1        0.0436
     11 C          61.1423   88.0603   10.6616 C.2     1  UNL1        0.2111
     12 O          60.0990   88.3019    9.6113 O.2     1  UNL1       -0.2850
     13 C          62.0403   89.1798   11.0982 C.ar    1  UNL1        0.0961
     14 C          62.6756   90.2012   10.2020 C.ar    1  UNL1        0.0218
     15 C          63.4885   91.1271   11.0576 C.ar    1  UNL1        0.0200
     16 C          63.3554   90.6779   12.4827 C.ar    1  UNL1        0.0725
     17 N          62.4604   89.4744   12.5077 N.ar    1  UNL1       -0.3495
     18 H          62.1953   88.9670   13.3086 H       1  UNL1        0.1661
     19 O          63.3730   85.9025   14.5136 O.3     1  UNL1       -0.4713
     20 C          63.7367   85.7680   15.9626 C.3     1  UNL1        0.2525
@<TRIPOS>BOND
     1     7     8    1
     2     8     1    1
     3     1     2   ar
     4     2     3   ar
     5     3     4   ar
     6     4     9    1
     7     9    10    2
     8    10    11    1
     9    11    12    2
    10    11    13    1
    11    13    14   ar
    12    14    15   ar
    13    15    16   ar
    14    16    17   ar
    15     4     5   ar
    16     5    19    1
    17    19    20    1
    18     5     6   ar
    19     6     1   ar
    20    17    13   ar
    21    17    18    1
@<TRIPOS>MOLECULE
*****
 20 21 0 0 0
SMALL
GASTEIGER

@<TRIPOS>ATOM
      1 C          63.6711   83.2974   14.7588 C.ar    1  UNL1        0.1418
      2 C          64.6345   84.1629   14.0019 C.ar    1  UNL1        0.0371
      3 C          64.7125   85.6320   14.2947 C.ar    1  UNL1        0.0061
      4 C          63.8271   86.2356   15.3443 C.ar    1  UNL1        0.0343
      5 C          62.8638   85.3701   16.1012 C.ar    1  UNL1        0.1417
      6 C          62.7858   83.9010   15.8084 C.ar    1  UNL1        0.0737
      7 C          62.3152   81.2323   13.9546 C.3     1  UNL1        0.2525
      8 O          63.5932   81.8283   14.4660 O.3     1  UNL1       -0.4713
      9 C          63.9051   87.7046   15.6371 C.2     1  UNL1        0.0063
     10 C          64.1600   88.6785   14.5251 C.2     1  UNL1        0.0436
     11 C          64.2380   90.1476   14.8179 C.2     1  UNL1        0.2111
     12 O          63.5449   90.7099   16.0234 O.2     1  UNL1       -0.2850
     13 C          65.0091   91.0544   13.9051 C.ar    1  UNL1        0.0961
     14 C          64.5188   91.6223   12.6062 C.ar    1  UNL1        0.0218
     15 C          65.6125   92.4713   12.0292 C.ar    1  UNL1        0.0200
     16 C          66.7788   92.4281   12.9715 C.ar    1  UNL1        0.0725
     17 N          66.4059   91.5524   14.1309 N.ar    1  UNL1       -0.3495
     18 H          66.9775   91.3415   14.9042 H       1  UNL1        0.1661
     19 O          61.9783   85.9737   17.1509 O.3     1  UNL1       -0.4713
     20 C          62.5837   86.6921   18.3202 C.3     1  UNL1        0.2525
@<TRIPOS>BOND
     1     7     8    1
     2     8     1    1
     3     1     2   ar
     4     2     3   ar
     5     3     4   ar
     6     4     9    1
     7     9    10    2
     8    10    11    1
     9    11    12    2
    10    11    13    1
    11    13    14   ar
    12    14    15   ar
    13    15    16   ar
    14    16    17   ar
    15     4     5   ar
    16     5    19    1
    17    19    20    1
    18     5     6   ar
    19     6     1   ar
    20    17    13   ar
    21    17    18    1
@<TRIPOS>MOLECULE
*****
 20 21 0 0 0
SMALL
GASTEIGER

@<TRIPOS>ATOM
      1 C          63.3455   82.0408   13.4029 C.ar    1  UNL1        0.1418
      2 C          62.8725   82.0833   11.9802 C.ar    1  UNL1        0.0371
      3 C          62.5386   83.3980   11.3397 C.ar    1  UNL1        0.0061
      4 C          62.6777   84.6701   12.1221 C.ar    1  UNL1        0.0343
      5 C          63.1508   84.6276   13.5449 C.ar    1  UNL1        0.1417
      6 C          63.4847   83.3130   14.1853 C.ar    1  UNL1        0.0737
      7 C          62.7897   79.5383   13.8256 C.3     1  UNL1        0.2525
      8 O          63.6794   80.7261   14.0434 O.3     1  UNL1       -0.4713
      9 C          62.3438   85.9848   11.4817 C.2     1  UNL1        0.0063
     10 C          61.1583   86.0950   10.5694 C.2     1  UNL1        0.0436
     11 C          60.8244   87.4097    9.9290 C.2     1  UNL1        0.2111
     12 O          61.1158   87.6308    8.4743 O.2     1  UNL1       -0.2850
     13 C          60.1991   88.5033   10.7433 C.ar    1  UNL1        0.0961
     14 C          60.1509   89.9573   10.3778 C.ar    1  UNL1        0.0218
     15 C          59.4342   90.6875   11.4746 C.ar    1  UNL1        0.0200
     16 C          59.0394   89.6848   12.5181 C.ar    1  UNL1        0.0725
     17 N          59.5121   88.3349   12.0661 N.ar    1  UNL1       -0.3495
     18 H          59.3925   87.4872   12.5522 H       1  UNL1        0.1661
     19 O          63.2900   85.8999   14.3273 O.3     1  UNL1       -0.4713
     20 C          63.9455   85.8828   15.6763 C.3     1  UNL1        0.2525
@<TRIPOS>BOND
     1     7     8    1
     2     8     1    1
     3     1     2   ar
     4     2     3   ar
     5     3     4   ar
     6     4     9    1
     7     9    10    2
     8    10    11    1
     9    11    12    2
    10    11    13    1
    11    13    14   ar
    12    14    15   ar
    13    15    16   ar
    14    16    17   ar
    15     4     5   ar
    16     5    19    1
    17    19    20    1
    18     5     6   ar
    19     6     1   ar
    20    17    13   ar
    21    17    18    1
@<TRIPOS>MOLECULE
*****
 20 21 0 0 0
SMALL
GASTEIGER

@<TRIPOS>ATOM
      1 C          65.2872   91.9359   14.1168 C.ar    1  UNL1        0.1418
      2 C          64.8627   92.0346   12.6815 C.ar    1  UNL1        0.0371
      3 C          64.0812   90.9196   12.0521 C.ar    1  UNL1        0.0061
      4 C          63.7242   89.7059   12.8580 C.ar    1  UNL1        0.0343
      5 C          64.1487   89.6072   14.2932 C.ar    1  UNL1        0.1417
      6 C          64.9302   90.7222   14.9226 C.ar    1  UNL1        0.0737
      7 C          67.5660   93.0608   14.6569 C.3     1  UNL1        0.2525
      8 O          66.0687   93.0508   14.7462 O.3     1  UNL1       -0.4713
      9 C          62.9428   88.5910   12.2286 C.2     1  UNL1        0.0063
     10 C          61.8575   88.9004   11.2405 C.2     1  UNL1        0.0436
     11 C          61.0760   87.7855   10.6111 C.2     1  UNL1        0.2111
     12 O          61.0127   86.4439   11.2789 O.2     1  UNL1       -0.2850
     13 C          60.3578   88.0122    9.3138 C.ar    1  UNL1        0.0961
     14 C          59.6581   86.9652    8.4988 C.ar    1  UNL1        0.0218
     15 C          59.0811   87.6315    7.2851 C.ar    1  UNL1        0.0200
     16 C          59.4243   89.0903    7.3500 C.ar    1  UNL1        0.0725
     17 N          60.2133   89.3255    8.6038 N.ar    1  UNL1       -0.3495
     18 H          60.5732   90.1901    8.9074 H       1  UNL1        0.1661
     19 O          63.7918   88.3934   15.0992 O.3     1  UNL1       -0.4713
     20 C          64.5479   87.1131   14.9018 C.3     1  UNL1        0.2525
@<TRIPOS>BOND
     1     7     8    1
     2     8     1    1
     3     1     2   ar
     4     2     3   ar
     5     3     4   ar
     6     4     9    1
     7     9    10    2
     8    10    11    1
     9    11    12    2
    10    11    13    1
    11    13    14   ar
    12    14    15   ar
    13    15    16   ar
    14    16    17   ar
    15     4     5   ar
    16     5    19    1
    17    19    20    1
    18     5     6   ar
    19     6     1   ar
    20    17    13   ar
    21    17    18    1
