@<TRIPOS>MOLECULE
*****
 43 47 0 0 0
SMALL
GASTEIGER

@<TRIPOS>ATOM
      1 C          61.8599   87.8211    9.8725 C.3     1  UNL1        0.0758
      2 C          61.3383   89.2275    9.8834 C.3     1  UNL1        0.0370
      3 C          60.2560   89.6334    8.9276 C.3     1  UNL1        0.0741
      4 N          59.6951   88.6329    7.9609 N.3     1  UNL1       -0.2688
      5 C          60.2166   87.2266    7.9500 C.3     1  UNL1        0.0741
      6 C          61.2990   86.8207    8.9058 C.3     1  UNL1        0.0370
      7 N          63.7330   86.0163   12.8700 N.am    1  UNL1       -0.2848
      8 C          62.6505   86.4223   11.9141 C.2     1  UNL1        0.3010
      9 O          61.2763   85.8352   12.0441 O.2     1  UNL1       -0.2528
     10 N          62.9423   87.4152   10.8284 N.am    1  UNL1       -0.2905
     11 H          64.6349   86.4016   12.7847 H       1  UNL1        0.1513
     12 H          63.8443   87.8005   10.7431 H       1  UNL1        0.1509
     13 C          63.4411   85.0234   13.9557 C.3     1  UNL1        0.1199
     14 C          63.0456   83.6203   13.6024 C.ar    1  UNL1       -0.0025
     15 C          63.4853   83.0229   12.2986 C.ar    1  UNL1       -0.0026
     16 C          63.0898   81.6197   11.9453 C.ar    1  UNL1       -0.0003
     17 C          62.2545   80.8141   12.8957 C.ar    1  UNL1       -0.0000
     18 C          61.8148   81.4115   14.1994 C.ar    1  UNL1       -0.0003
     19 C          62.2103   82.8146   14.5527 C.ar    1  UNL1       -0.0026
     20 C          63.5449   85.4335   15.3948 C.3     1  UNL1        0.1510
     21 C          63.9578   90.6925   15.1655 C.3     1  UNL1        0.0540
     22 C          63.6848   89.3032   15.6608 C.ar    1  UNL1        0.0801
     23 C          63.1515   88.9387   17.0147 C.ar    1  UNL1        0.0308
     24 C          63.0342   87.4448   17.0798 C.ar    1  UNL1        0.0572
     25 C          62.5425   86.6493   18.2526 C.3     1  UNL1        0.0517
     26 N          63.4950   86.8859   15.7662 N.ar    1  UNL1       -0.2532
     27 N          63.8970   88.0345   14.8893 N.ar    1  UNL1       -0.1739
     28 C          58.6126   89.0389    7.0050 C.3     1  UNL1        0.1007
     29 C          58.8765   90.1026    5.9810 C.ar    1  UNL1        0.0129
     30 C          57.8784   91.0959    5.4641 C.ar    1  UNL1        0.0176
     31 C          58.5698   91.9671    4.4577 C.ar    1  UNL1        0.0799
     32 N          59.9954   91.5122    4.3525 N.ar    1  UNL1       -0.3038
     33 C          60.1849   90.3599    5.2939 C.ar    1  UNL1        0.0772
     34 C          61.0467   92.1055    3.4622 C.ar    1  UNL1        0.0640
     35 C          62.4300   91.5257    3.4457 C.ar    1  UNL1        0.0175
     36 C          63.4813   92.1189    2.5554 C.ar    1  UNL1        0.0053
     37 C          63.1494   93.2920    1.6816 C.ar    1  UNL1        0.0715
     38 C          61.7662   93.8718    1.6980 C.ar    1  UNL1        0.0053
     39 C          60.7148   93.2786    2.5883 C.ar    1  UNL1        0.0175
     40 C          64.2008   93.8852    0.7913 C.3     1  UNL1        0.4186
     41 F          65.2521   94.4786   -0.0991 F       1  UNL1       -0.1659
     42 F          65.0101   92.6278    0.9090 F       1  UNL1       -0.1659
     43 F          63.3915   95.1428    0.6735 F       1  UNL1       -0.1659
@<TRIPOS>BOND
     1    21    22    1
     2    22    23   ar
     3    23    24   ar
     4    24    25    1
     5    24    26   ar
     6    26    20    1
     7    20    13    1
     8    13     7    1
     9     7     8   am
    10     8     9    2
    11     8    10   am
    12    10     1    1
    13     1     2    1
    14     2     3    1
    15     3     4    1
    16     4    28    1
    17    28    29    1
    18    29    30   ar
    19    30    31   ar
    20    31    32   ar
    21    32    34    1
    22    34    35   ar
    23    35    36   ar
    24    36    37   ar
    25    37    40    1
    26    40    41    1
    27    40    42    1
    28    40    43    1
    29    37    38   ar
    30    38    39   ar
    31    32    33   ar
    32     4     5    1
    33     5     6    1
    34    13    14    1
    35    14    15   ar
    36    15    16   ar
    37    16    17   ar
    38    17    18   ar
    39    18    19   ar
    40    26    27   ar
    41    27    22   ar
    42     6     1    1
    43    19    14   ar
    44    33    29   ar
    45    39    34   ar
    46     7    11    1
    47    10    12    1
@<TRIPOS>MOLECULE
*****
 43 47 0 0 0
SMALL
GASTEIGER

@<TRIPOS>ATOM
      1 C          59.5191   92.4415    4.1450 C.3     1  UNL1        0.0758
      2 C          60.6573   91.5929    4.6289 C.3     1  UNL1        0.0370
      3 C          60.3871   90.3991    5.4959 C.3     1  UNL1        0.0741
      4 N          58.9785   90.0539    5.8790 N.3     1  UNL1       -0.2688
      5 C          57.8402   90.9024    5.3951 C.3     1  UNL1        0.0741
      6 C          58.1105   92.0962    4.5281 C.3     1  UNL1        0.0370
      7 N          60.0838   94.6821    0.9184 N.am    1  UNL1       -0.2848
      8 C          59.8136   93.4882    1.7854 C.2     1  UNL1        0.3010
      9 O          59.5677   92.1473    1.1598 O.2     1  UNL1       -0.2528
     10 N          59.7893   93.6353    3.2779 N.am    1  UNL1       -0.2905
     11 H          60.2453   95.5622    1.3289 H       1  UNL1        0.1513
     12 H          59.9507   94.5155    3.6885 H       1  UNL1        0.1509
     13 C          60.1081   94.5350   -0.5742 C.3     1  UNL1        0.1199
     14 C          58.8941   94.0331   -1.2982 C.ar    1  UNL1       -0.0025
     15 C          59.0364   92.9937   -2.3702 C.ar    1  UNL1       -0.0026
     16 C          57.8223   92.4918   -3.0942 C.ar    1  UNL1       -0.0003
     17 C          56.4659   93.0294   -2.7461 C.ar    1  UNL1       -0.0000
     18 C          56.3236   94.0689   -1.6741 C.ar    1  UNL1       -0.0003
     19 C          57.5376   94.5707   -0.9501 C.ar    1  UNL1       -0.0026
     20 C          61.3465   94.8897   -1.3427 C.3     1  UNL1        0.1510
     21 C          64.9672   95.5653    2.4407 C.3     1  UNL1        0.0540
     22 C          64.3263   95.3190    1.1070 C.ar    1  UNL1        0.0801
     23 C          65.0467   95.0633   -0.1837 C.ar    1  UNL1        0.0308
     24 C          64.0181   94.8714   -1.2584 C.ar    1  UNL1        0.0572
     25 C          64.2967   94.5916   -2.7055 C.3     1  UNL1        0.0517
     26 N          62.6620   95.0084   -0.6320 N.ar    1  UNL1       -0.2532
     27 N          62.8525   95.2850    0.8299 N.ar    1  UNL1       -0.1739
     28 C          58.7083   88.8600    6.7461 C.3     1  UNL1        0.1007
     29 C          59.6688   88.4934    7.8383 C.ar    1  UNL1        0.0129
     30 C          60.2224   89.4255    8.8750 C.ar    1  UNL1        0.0176
     31 C          61.1401   88.6386    9.7630 C.ar    1  UNL1        0.0799
     32 N          61.1538   87.2202    9.2750 N.ar    1  UNL1       -0.3038
     33 C          60.2445   87.1305    8.0855 C.ar    1  UNL1        0.0772
     34 C          61.9389   86.0900    9.8718 C.ar    1  UNL1        0.0640
     35 C          62.8466   85.2678    9.0058 C.ar    1  UNL1        0.0175
     36 C          63.6317   84.1376    9.6026 C.ar    1  UNL1        0.0053
     37 C          63.5092   83.8296   11.0654 C.ar    1  UNL1        0.0715
     38 C          62.6015   84.6517   11.9316 C.ar    1  UNL1        0.0053
     39 C          61.8164   85.7819   11.3348 C.ar    1  UNL1        0.0175
     40 C          64.2943   82.6994   11.6622 C.3     1  UNL1        0.4186
     41 F          65.0795   81.5691   12.2590 F       1  UNL1       -0.1659
     42 F          64.2028   83.3483   13.0115 F       1  UNL1       -0.1659
     43 F          64.3858   82.0504   10.3129 F       1  UNL1       -0.1659
@<TRIPOS>BOND
     1    21    22    1
     2    22    23   ar
     3    23    24   ar
     4    24    25    1
     5    24    26   ar
     6    26    20    1
     7    20    13    1
     8    13     7    1
     9     7     8   am
    10     8     9    2
    11     8    10   am
    12    10     1    1
    13     1     2    1
    14     2     3    1
    15     3     4    1
    16     4    28    1
    17    28    29    1
    18    29    30   ar
    19    30    31   ar
    20    31    32   ar
    21    32    34    1
    22    34    35   ar
    23    35    36   ar
    24    36    37   ar
    25    37    40    1
    26    40    41    1
    27    40    42    1
    28    40    43    1
    29    37    38   ar
    30    38    39   ar
    31    32    33   ar
    32     4     5    1
    33     5     6    1
    34    13    14    1
    35    14    15   ar
    36    15    16   ar
    37    16    17   ar
    38    17    18   ar
    39    18    19   ar
    40    26    27   ar
    41    27    22   ar
    42     6     1    1
    43    19    14   ar
    44    33    29   ar
    45    39    34   ar
    46     7    11    1
    47    10    12    1
@<TRIPOS>MOLECULE
*****
 43 47 0 0 0
SMALL
GASTEIGER

@<TRIPOS>ATOM
      1 C          59.5207   92.3646    4.2149 C.3     1  UNL1        0.0758
      2 C          60.6786   91.5032    4.6236 C.3     1  UNL1        0.0370
      3 C          60.4504   90.3040    5.4953 C.3     1  UNL1        0.0741
      4 N          59.0642   89.9664    5.9584 N.3     1  UNL1       -0.2688
      5 C          57.9062   90.8278    5.5497 C.3     1  UNL1        0.0741
      6 C          58.1345   92.0269    4.6780 C.3     1  UNL1        0.0370
      7 N          60.0123   94.6101    0.9797 N.am    1  UNL1       -0.2848
      8 C          59.7841   93.4109    1.8514 C.2     1  UNL1        0.3010
      9 O          59.5911   92.0587    1.2314 O.2     1  UNL1       -0.2528
     10 N          59.7489   93.5638    3.3432 N.am    1  UNL1       -0.2905
     11 H          60.1390   95.4975    1.3866 H       1  UNL1        0.1513
     12 H          59.8756   94.4513    3.7501 H       1  UNL1        0.1509
     13 C          60.0475   94.4571   -0.5121 C.3     1  UNL1        0.1199
     14 C          58.8491   93.9241   -1.2398 C.ar    1  UNL1       -0.0025
     15 C          57.4701   94.3339   -0.8149 C.ar    1  UNL1       -0.0026
     16 C          56.2716   93.8007   -1.5427 C.ar    1  UNL1       -0.0003
     17 C          56.4522   92.8579   -2.6953 C.ar    1  UNL1       -0.0000
     18 C          57.8312   92.4481   -3.1201 C.ar    1  UNL1       -0.0003
     19 C          59.0296   92.9812   -2.3924 C.ar    1  UNL1       -0.0026
     20 C          61.2811   94.8372   -1.2761 C.3     1  UNL1        0.1510
     21 C          64.9649   95.5254    2.4437 C.3     1  UNL1        0.0540
     22 C          64.2989   95.2224    1.1342 C.ar    1  UNL1        0.0801
     23 C          64.9891   94.8017   -0.1295 C.ar    1  UNL1        0.0308
     24 C          63.9426   94.6062   -1.1861 C.ar    1  UNL1        0.0572
     25 C          64.1897   94.1849   -2.6044 C.3     1  UNL1        0.0517
     26 N          62.6057   94.9061   -0.5756 N.ar    1  UNL1       -0.2532
     27 N          62.8259   95.2869    0.8584 N.ar    1  UNL1       -0.1739
     28 C          58.8360   88.7671    6.8301 C.3     1  UNL1        0.1007
     29 C          59.8493   88.3926    7.8707 C.ar    1  UNL1        0.0129
     30 C          60.3915   87.0161    8.1182 C.ar    1  UNL1        0.0176
     31 C          61.3756   87.1016    9.2469 C.ar    1  UNL1        0.0799
     32 N          61.4417   88.5309    9.6971 N.ar    1  UNL1       -0.3038
     33 C          60.4984   89.3288    8.8466 C.ar    1  UNL1        0.0772
     34 C          62.3003   89.0681   10.8036 C.ar    1  UNL1        0.0640
     35 C          62.6834   90.5182   10.8191 C.ar    1  UNL1        0.0175
     36 C          63.5420   91.0553   11.9256 C.ar    1  UNL1        0.0053
     37 C          64.0175   90.1423   13.0165 C.ar    1  UNL1        0.0715
     38 C          63.6344   88.6921   13.0010 C.ar    1  UNL1        0.0053
     39 C          62.7758   88.1550   11.8946 C.ar    1  UNL1        0.0175
     40 C          64.8761   90.6794   14.1230 C.3     1  UNL1        0.4186
     41 F          65.7348   91.2166   15.2294 F       1  UNL1       -0.1659
     42 F          64.1046   89.8637   15.1176 F       1  UNL1       -0.1659
     43 F          65.6477   91.4951   13.1283 F       1  UNL1       -0.1659
@<TRIPOS>BOND
     1    21    22    1
     2    22    23   ar
     3    23    24   ar
     4    24    25    1
     5    24    26   ar
     6    26    20    1
     7    20    13    1
     8    13     7    1
     9     7     8   am
    10     8     9    2
    11     8    10   am
    12    10     1    1
    13     1     2    1
    14     2     3    1
    15     3     4    1
    16     4    28    1
    17    28    29    1
    18    29    30   ar
    19    30    31   ar
    20    31    32   ar
    21    32    34    1
    22    34    35   ar
    23    35    36   ar
    24    36    37   ar
    25    37    40    1
    26    40    41    1
    27    40    42    1
    28    40    43    1
    29    37    38   ar
    30    38    39   ar
    31    32    33   ar
    32     4     5    1
    33     5     6    1
    34    13    14    1
    35    14    15   ar
    36    15    16   ar
    37    16    17   ar
    38    17    18   ar
    39    18    19   ar
    40    26    27   ar
    41    27    22   ar
    42     6     1    1
    43    19    14   ar
    44    33    29   ar
    45    39    34   ar
    46     7    11    1
    47    10    12    1
@<TRIPOS>MOLECULE
*****
 43 47 0 0 0
SMALL
GASTEIGER

@<TRIPOS>ATOM
      1 C          61.9882   88.3898    9.9290 C.3     1  UNL1        0.0758
      2 C          61.5155   89.7983    9.7226 C.3     1  UNL1        0.0370
      3 C          60.4258   90.0862    8.7329 C.3     1  UNL1        0.0741
      4 N          59.8087   88.9656    7.9496 N.3     1  UNL1       -0.2688
      5 C          60.2814   87.5571    8.1560 C.3     1  UNL1        0.0741
      6 C          61.3712   87.2692    9.1457 C.3     1  UNL1        0.0370
      7 N          64.0782   88.3600   13.3026 N.am    1  UNL1       -0.2848
      8 C          62.9884   88.6479   12.3129 C.2     1  UNL1        0.3010
      9 O          61.8091   89.4819   12.7174 O.2     1  UNL1       -0.2528
     10 N          63.0780   88.1019   10.9187 N.am    1  UNL1       -0.2905
     11 H          64.8523   87.8126   13.0371 H       1  UNL1        0.1513
     12 H          63.8520   87.5545   10.6532 H       1  UNL1        0.1509
     13 C          63.9887   88.9060   14.6968 C.3     1  UNL1        0.1199
     14 C          63.5833   88.0092   15.8288 C.ar    1  UNL1       -0.0025
     15 C          63.0568   88.6008   17.1027 C.ar    1  UNL1       -0.0026
     16 C          62.6515   87.7040   18.2348 C.ar    1  UNL1       -0.0003
     17 C          62.7727   86.2157   18.0929 C.ar    1  UNL1       -0.0000
     18 C          63.2992   85.6241   16.8190 C.ar    1  UNL1       -0.0003
     19 C          63.7045   86.5208   15.6870 C.ar    1  UNL1       -0.0026
     20 C          64.3044   90.3487   14.9590 C.3     1  UNL1        0.1510
     21 C          65.3262   93.0141   10.5169 C.3     1  UNL1        0.0540
     22 C          65.4762   92.3898   11.8725 C.ar    1  UNL1        0.0801
     23 C          66.6977   92.4507   12.7410 C.ar    1  UNL1        0.0308
     24 C          66.4074   91.6935   14.0029 C.ar    1  UNL1        0.0572
     25 C          67.3522   91.4992   15.1517 C.3     1  UNL1        0.0517
     26 N          65.0065   91.1647   13.9143 N.ar    1  UNL1       -0.2532
     27 N          64.4310   91.5950   12.5977 N.ar    1  UNL1       -0.1739
     28 C          58.7189   89.2536    6.9598 C.3     1  UNL1        0.1007
     29 C          58.9327   90.2787    5.8860 C.ar    1  UNL1        0.0129
     30 C          57.8889   91.1977    5.3240 C.ar    1  UNL1        0.0176
     31 C          58.5389   92.0519    4.2763 C.ar    1  UNL1        0.0799
     32 N          59.9846   91.6609    4.1907 N.ar    1  UNL1       -0.3038
     33 C          60.2279   90.5650    5.1856 C.ar    1  UNL1        0.0772
     34 C          61.0072   92.2604    3.2716 C.ar    1  UNL1        0.0640
     35 C          60.6343   93.4089    2.3818 C.ar    1  UNL1        0.0175
     36 C          61.6570   94.0084    1.4627 C.ar    1  UNL1        0.0053
     37 C          63.0525   93.4595    1.4335 C.ar    1  UNL1        0.0715
     38 C          63.4255   92.3110    2.3233 C.ar    1  UNL1        0.0053
     39 C          62.4029   91.7114    3.2424 C.ar    1  UNL1        0.0175
     40 C          64.0752   94.0590    0.5144 C.3     1  UNL1        0.4186
     41 F          65.0978   94.6587   -0.4047 F       1  UNL1       -0.1659
     42 F          65.0846   93.0524    0.9809 F       1  UNL1       -0.1659
     43 F          63.0657   95.0658    0.0479 F       1  UNL1       -0.1659
@<TRIPOS>BOND
     1    21    22    1
     2    22    23   ar
     3    23    24   ar
     4    24    25    1
     5    24    26   ar
     6    26    20    1
     7    20    13    1
     8    13     7    1
     9     7     8   am
    10     8     9    2
    11     8    10   am
    12    10     1    1
    13     1     2    1
    14     2     3    1
    15     3     4    1
    16     4    28    1
    17    28    29    1
    18    29    30   ar
    19    30    31   ar
    20    31    32   ar
    21    32    34    1
    22    34    35   ar
    23    35    36   ar
    24    36    37   ar
    25    37    40    1
    26    40    41    1
    27    40    42    1
    28    40    43    1
    29    37    38   ar
    30    38    39   ar
    31    32    33   ar
    32     4     5    1
    33     5     6    1
    34    13    14    1
    35    14    15   ar
    36    15    16   ar
    37    16    17   ar
    38    17    18   ar
    39    18    19   ar
    40    26    27   ar
    41    27    22   ar
    42     6     1    1
    43    19    14   ar
    44    33    29   ar
    45    39    34   ar
    46     7    11    1
    47    10    12    1
@<TRIPOS>MOLECULE
*****
 43 47 0 0 0
SMALL
GASTEIGER

@<TRIPOS>ATOM
      1 C          61.9115   89.5124   10.8914 C.3     1  UNL1        0.0758
      2 C          60.7904   90.4710   10.6194 C.3     1  UNL1        0.0370
      3 C          59.8772   90.2450    9.4510 C.3     1  UNL1        0.0741
      4 N          60.0853   89.0604    8.5547 N.3     1  UNL1       -0.2688
      5 C          61.2064   88.1018    8.8267 C.3     1  UNL1        0.0741
      6 C          62.1195   88.3277    9.9950 C.3     1  UNL1        0.0370
      7 N          64.6993   91.1156   13.2170 N.am    1  UNL1       -0.2848
      8 C          63.7861   90.8896   12.0486 C.2     1  UNL1        0.3010
      9 O          63.8343   91.8150   10.8691 O.2     1  UNL1       -0.2528
     10 N          62.8247   89.7383   12.0598 N.am    1  UNL1       -0.2905
     11 H          64.6676   90.5082   13.9912 H       1  UNL1        0.1513
     12 H          62.7930   89.1309   12.8340 H       1  UNL1        0.1509
     13 C          65.6606   92.2669   13.2059 C.3     1  UNL1        0.1199
     14 C          66.7727   92.3251   14.2108 C.ar    1  UNL1       -0.0025
     15 C          68.1857   92.0614   13.7819 C.ar    1  UNL1       -0.0026
     16 C          69.2978   92.1196   14.7869 C.ar    1  UNL1       -0.0003
     17 C          68.9969   92.4415   16.2207 C.ar    1  UNL1       -0.0000
     18 C          67.5839   92.7051   16.6496 C.ar    1  UNL1       -0.0003
     19 C          66.4718   92.6469   15.6447 C.ar    1  UNL1       -0.0026
     20 C          65.5100   93.3600   12.1898 C.3     1  UNL1        0.1510
     21 C          69.0072   92.1151    8.4349 C.3     1  UNL1        0.0540
     22 C          68.0942   92.8984    9.3309 C.ar    1  UNL1        0.0801
     23 C          67.8853   94.3835    9.2957 C.ar    1  UNL1        0.0308
     24 C          66.8918   94.7371   10.3624 C.ar    1  UNL1        0.0572
     25 C          66.3912   96.1152   10.6792 C.3     1  UNL1        0.0517
     26 N          66.4867   93.4707   11.0568 N.ar    1  UNL1       -0.2532
     27 N          67.2298   92.3344   10.4193 N.ar    1  UNL1       -0.1739
     28 C          59.1721   88.8344    7.3863 C.3     1  UNL1        0.1007
     29 C          59.0842   89.8587    6.2940 C.ar    1  UNL1        0.0129
     30 C          57.8308   90.5241    5.8081 C.ar    1  UNL1        0.0176
     31 C          58.2063   91.4741    4.7096 C.ar    1  UNL1        0.0799
     32 N          59.6918   91.3957    4.5166 N.ar    1  UNL1       -0.3038
     33 C          60.2344   90.3974    5.4958 C.ar    1  UNL1        0.0772
     34 C          60.4938   92.1783    3.5195 C.ar    1  UNL1        0.0640
     35 C          59.8326   93.2421    2.6942 C.ar    1  UNL1        0.0175
     36 C          60.6346   94.0247    1.6971 C.ar    1  UNL1        0.0053
     37 C          62.0979   93.7435    1.5252 C.ar    1  UNL1        0.0715
     38 C          62.7592   92.6797    2.3505 C.ar    1  UNL1        0.0053
     39 C          61.9572   91.8971    3.3476 C.ar    1  UNL1        0.0175
     40 C          62.8999   94.5261    0.5281 C.3     1  UNL1        0.4186
     41 F          63.7020   95.3087   -0.4691 F       1  UNL1       -0.1659
     42 F          62.9734   95.6754    1.4893 F       1  UNL1       -0.1659
     43 F          62.8264   93.3768   -0.4331 F       1  UNL1       -0.1659
@<TRIPOS>BOND
     1    21    22    1
     2    22    23   ar
     3    23    24   ar
     4    24    25    1
     5    24    26   ar
     6    26    20    1
     7    20    13    1
     8    13     7    1
     9     7     8   am
    10     8     9    2
    11     8    10   am
    12    10     1    1
    13     1     2    1
    14     2     3    1
    15     3     4    1
    16     4    28    1
    17    28    29    1
    18    29    30   ar
    19    30    31   ar
    20    31    32   ar
    21    32    34    1
    22    34    35   ar
    23    35    36   ar
    24    36    37   ar
    25    37    40    1
    26    40    41    1
    27    40    42    1
    28    40    43    1
    29    37    38   ar
    30    38    39   ar
    31    32    33   ar
    32     4     5    1
    33     5     6    1
    34    13    14    1
    35    14    15   ar
    36    15    16   ar
    37    16    17   ar
    38    17    18   ar
    39    18    19   ar
    40    26    27   ar
    41    27    22   ar
    42     6     1    1
    43    19    14   ar
    44    33    29   ar
    45    39    34   ar
    46     7    11    1
    47    10    12    1
@<TRIPOS>MOLECULE
*****
 43 47 0 0 0
SMALL
GASTEIGER

@<TRIPOS>ATOM
      1 C          59.4583   92.3132    4.1543 C.3     1  UNL1        0.0758
      2 C          60.5820   91.4826    4.6996 C.3     1  UNL1        0.0370
      3 C          60.2865   90.3177    5.5971 C.3     1  UNL1        0.0741
      4 N          58.8672   89.9834    5.9494 N.3     1  UNL1       -0.2688
      5 C          57.7436   90.8140    5.4041 C.3     1  UNL1        0.0741
      6 C          58.0391   91.9789    4.5066 C.3     1  UNL1        0.0370
      7 N          61.0734   94.5109    1.2712 N.am    1  UNL1       -0.2848
      8 C          60.7779   93.3459    2.1688 C.2     1  UNL1        0.3010
      9 O          61.5066   92.0487    1.9784 O.2     1  UNL1       -0.2528
     10 N          59.7538   93.4782    3.2567 N.am    1  UNL1       -0.2905
     11 H          60.5951   95.3623    1.3961 H       1  UNL1        0.1513
     12 H          59.2755   94.3296    3.3817 H       1  UNL1        0.1509
     13 C          62.0975   94.3786    0.1833 C.3     1  UNL1        0.1199
     14 C          63.3499   95.2028    0.2281 C.ar    1  UNL1       -0.0025
     15 C          63.9785   95.6820   -1.0468 C.ar    1  UNL1       -0.0026
     16 C          65.2310   96.5062   -1.0019 C.ar    1  UNL1       -0.0003
     17 C          65.8549   96.8511    0.3178 C.ar    1  UNL1       -0.0000
     18 C          65.2264   96.3719    1.5927 C.ar    1  UNL1       -0.0003
     19 C          63.9740   95.5477    1.5478 C.ar    1  UNL1       -0.0026
     20 C          61.8691   93.4222   -0.9495 C.3     1  UNL1        0.1510
     21 C          56.7213   92.5106   -1.6903 C.3     1  UNL1        0.0540
     22 C          58.1488   92.9055   -1.9277 C.ar    1  UNL1        0.0801
     23 C          58.7135   93.4428   -3.2093 C.ar    1  UNL1        0.0308
     24 C          60.1759   93.7018   -2.9988 C.ar    1  UNL1        0.0572
     25 C          61.1314   94.2430   -4.0206 C.3     1  UNL1        0.0517
     26 N          60.5150   93.3245   -1.5872 N.ar    1  UNL1       -0.2532
     27 N          59.2622   92.8323   -0.9252 N.ar    1  UNL1       -0.1739
     28 C          58.5718   88.8184    6.8470 C.3     1  UNL1        0.1007
     29 C          59.5608   88.4125    7.8991 C.ar    1  UNL1        0.0129
     30 C          59.9918   87.0098    8.2098 C.ar    1  UNL1        0.0176
     31 C          60.9898   87.0684    9.3280 C.ar    1  UNL1        0.0799
     32 N          61.1756   88.5074    9.7085 N.ar    1  UNL1       -0.3038
     33 C          60.2924   89.3381    8.8254 C.ar    1  UNL1        0.0772
     34 C          62.0849   89.0249   10.7834 C.ar    1  UNL1        0.0640
     35 C          62.8133   88.0645   11.6761 C.ar    1  UNL1        0.0175
     36 C          63.7227   88.5819   12.7510 C.ar    1  UNL1        0.0053
     37 C          63.9036   90.0597   12.9331 C.ar    1  UNL1        0.0715
     38 C          63.1752   91.0202   12.0404 C.ar    1  UNL1        0.0053
     39 C          62.2659   90.5028   10.9656 C.ar    1  UNL1        0.0175
     40 C          64.8129   90.5771   14.0080 C.3     1  UNL1        0.4186
     41 F          65.7223   91.0947   15.0828 F       1  UNL1       -0.1659
     42 F          64.5764   89.3307   14.8082 F       1  UNL1       -0.1659
     43 F          65.0495   91.8237   13.2078 F       1  UNL1       -0.1659
@<TRIPOS>BOND
     1    21    22    1
     2    22    23   ar
     3    23    24   ar
     4    24    25    1
     5    24    26   ar
     6    26    20    1
     7    20    13    1
     8    13     7    1
     9     7     8   am
    10     8     9    2
    11     8    10   am
    12    10     1    1
    13     1     2    1
    14     2     3    1
    15     3     4    1
    16     4    28    1
    17    28    29    1
    18    29    30   ar
    19    30    31   ar
    20    31    32   ar
    21    32    34    1
    22    34    35   ar
    23    35    36   ar
    24    36    37   ar
    25    37    40    1
    26    40    41    1
    27    40    42    1
    28    40    43    1
    29    37    38   ar
    30    38    39   ar
    31    32    33   ar
    32     4     5    1
    33     5     6    1
    34    13    14    1
    35    14    15   ar
    36    15    16   ar
    37    16    17   ar
    38    17    18   ar
    39    18    19   ar
    40    26    27   ar
    41    27    22   ar
    42     6     1    1
    43    19    14   ar
    44    33    29   ar
    45    39    34   ar
    46     7    11    1
    47    10    12    1
@<TRIPOS>MOLECULE
*****
 43 47 0 0 0
SMALL
GASTEIGER

@<TRIPOS>ATOM
      1 C          61.7027   88.0997    9.8850 C.3     1  UNL1        0.0758
      2 C          61.0202   87.0210    9.0973 C.3     1  UNL1        0.0370
      3 C          59.9794   87.3803    8.0787 C.3     1  UNL1        0.0741
      4 N          59.6211   88.8185    7.8478 N.3     1  UNL1       -0.2688
      5 C          60.3035   89.8973    8.6355 C.3     1  UNL1        0.0741
      6 C          61.3443   89.5379    9.6541 C.3     1  UNL1        0.0370
      7 N          63.9617   88.2310   13.1454 N.am    1  UNL1       -0.2848
      8 C          62.9208   88.5903   12.1268 C.2     1  UNL1        0.3010
      9 O          62.0572   89.7996   12.3314 O.2     1  UNL1       -0.2528
     10 N          62.7436   87.7404   10.9036 N.am    1  UNL1       -0.2905
     11 H          64.5285   87.4373   13.0111 H       1  UNL1        0.1513
     12 H          63.3104   86.9467   10.7693 H       1  UNL1        0.1509
     13 C          64.1389   89.0809   14.3686 C.3     1  UNL1        0.1199
     14 C          64.8001   90.4229   14.2599 C.ar    1  UNL1       -0.0025
     15 C          64.8873   91.1105   12.9297 C.ar    1  UNL1       -0.0026
     16 C          65.5485   92.4526   12.8211 C.ar    1  UNL1       -0.0003
     17 C          66.1224   93.1070   14.0427 C.ar    1  UNL1       -0.0000
     18 C          66.0351   92.4194   15.3730 C.ar    1  UNL1       -0.0003
     19 C          65.3739   91.0774   15.4816 C.ar    1  UNL1       -0.0026
     20 C          63.6550   88.5888   15.7004 C.3     1  UNL1        0.1510
     21 C          63.4408   83.3694   14.9307 C.3     1  UNL1        0.0540
     22 C          63.3428   84.7221   15.5714 C.ar    1  UNL1        0.0801
     23 C          62.8819   85.0036   16.9708 C.ar    1  UNL1        0.0308
     24 C          62.9428   86.4863   17.1894 C.ar    1  UNL1        0.0572
     25 C          62.5705   87.2075   18.4509 C.3     1  UNL1        0.0517
     26 N          63.4413   87.1212   15.9252 N.ar    1  UNL1       -0.2532
     27 N          63.6885   86.0309   14.9251 N.ar    1  UNL1       -0.1739
     28 C          58.5802   89.1778    6.8292 C.3     1  UNL1        0.1007
     29 C          58.8621   90.2443    5.8129 C.ar    1  UNL1        0.0129
     30 C          57.8768   91.2478    5.2914 C.ar    1  UNL1        0.0176
     31 C          58.5846   92.1183    4.2958 C.ar    1  UNL1        0.0799
     32 N          60.0075   91.6528    4.2020 N.ar    1  UNL1       -0.3038
     33 C          60.1790   90.4946    5.1396 C.ar    1  UNL1        0.0772
     34 C          61.0719   92.2420    3.3246 C.ar    1  UNL1        0.0640
     35 C          60.7643   93.4368    2.4715 C.ar    1  UNL1        0.0175
     36 C          61.8287   94.0260    1.5941 C.ar    1  UNL1        0.0053
     37 C          63.2007   93.4205    1.5698 C.ar    1  UNL1        0.0715
     38 C          63.5084   92.2257    2.4229 C.ar    1  UNL1        0.0053
     39 C          62.4440   91.6365    3.3003 C.ar    1  UNL1        0.0175
     40 C          64.2651   94.0097    0.6925 C.3     1  UNL1        0.4186
     41 F          65.3295   94.5990   -0.1849 F       1  UNL1       -0.1659
     42 F          65.0373   92.7259    0.7671 F       1  UNL1       -0.1659
     43 F          63.4930   95.2936    0.6178 F       1  UNL1       -0.1659
@<TRIPOS>BOND
     1    21    22    1
     2    22    23   ar
     3    23    24   ar
     4    24    25    1
     5    24    26   ar
     6    26    20    1
     7    20    13    1
     8    13     7    1
     9     7     8   am
    10     8     9    2
    11     8    10   am
    12    10     1    1
    13     1     2    1
    14     2     3    1
    15     3     4    1
    16     4    28    1
    17    28    29    1
    18    29    30   ar
    19    30    31   ar
    20    31    32   ar
    21    32    34    1
    22    34    35   ar
    23    35    36   ar
    24    36    37   ar
    25    37    40    1
    26    40    41    1
    27    40    42    1
    28    40    43    1
    29    37    38   ar
    30    38    39   ar
    31    32    33   ar
    32     4     5    1
    33     5     6    1
    34    13    14    1
    35    14    15   ar
    36    15    16   ar
    37    16    17   ar
    38    17    18   ar
    39    18    19   ar
    40    26    27   ar
    41    27    22   ar
    42     6     1    1
    43    19    14   ar
    44    33    29   ar
    45    39    34   ar
    46     7    11    1
    47    10    12    1
@<TRIPOS>MOLECULE
*****
 43 47 0 0 0
SMALL
GASTEIGER

@<TRIPOS>ATOM
      1 C          59.2309   92.4541    4.4981 C.3     1  UNL1        0.0758
      2 C          60.4462   91.6425    4.8364 C.3     1  UNL1        0.0370
      3 C          60.2993   90.3423    5.5697 C.3     1  UNL1        0.0741
      4 N          58.9373   89.8537    5.9648 N.3     1  UNL1       -0.2688
      5 C          57.7220   90.6653    5.6265 C.3     1  UNL1        0.0741
      6 C          57.8689   91.9655    4.8932 C.3     1  UNL1        0.0370
      7 N          60.2503   95.0981    1.7194 N.am    1  UNL1       -0.2848
      8 C          60.1034   93.7978    2.4528 C.2     1  UNL1        0.3010
      9 O          60.6824   92.5408    1.8740 O.2     1  UNL1       -0.2528
     10 N          59.3777   93.7544    3.7648 N.am    1  UNL1       -0.2905
     11 H          59.8703   95.9230    2.0992 H       1  UNL1        0.1513
     12 H          58.9978   94.5794    4.1446 H       1  UNL1        0.1509
     13 C          60.9760   95.1414    0.4074 C.3     1  UNL1        0.1199
     14 C          62.4471   94.8537    0.3542 C.ar    1  UNL1       -0.0025
     15 C          63.3115   95.1432    1.5455 C.ar    1  UNL1       -0.0026
     16 C          64.7827   94.8555    1.4923 C.ar    1  UNL1       -0.0003
     17 C          65.3895   94.2783    0.2479 C.ar    1  UNL1       -0.0000
     18 C          64.5251   93.9887   -0.9434 C.ar    1  UNL1       -0.0003
     19 C          63.0540   94.2764   -0.8902 C.ar    1  UNL1       -0.0026
     20 C          60.2305   95.4724   -0.8515 C.3     1  UNL1        0.1510
     21 C          56.3434   92.0318   -1.8173 C.3     1  UNL1        0.0540
     22 C          57.5932   92.8490   -1.9593 C.ar    1  UNL1        0.0801
     23 C          58.5487   92.8052   -3.1148 C.ar    1  UNL1        0.0308
     24 C          59.6529   93.7826   -2.8404 C.ar    1  UNL1        0.0572
     25 C          60.8245   94.0629   -3.7342 C.3     1  UNL1        0.0517
     26 N          59.3799   94.4305   -1.5154 N.ar    1  UNL1       -0.2532
     27 N          58.1069   93.8535   -0.9709 N.ar    1  UNL1       -0.1739
     28 C          58.7905   88.5534    6.6981 C.3     1  UNL1        0.1007
     29 C          59.7072   88.2287    7.8401 C.ar    1  UNL1        0.0129
     30 C          60.1797   89.1883    8.8916 C.ar    1  UNL1        0.0176
     31 C          61.0769   88.4402    9.8325 C.ar    1  UNL1        0.0799
     32 N          61.1590   87.0181    9.3623 N.ar    1  UNL1       -0.3038
     33 C          60.3124   86.8874    8.1310 C.ar    1  UNL1        0.0772
     34 C          61.9489   85.9196   10.0099 C.ar    1  UNL1        0.0640
     35 C          62.8313   85.0386    9.1763 C.ar    1  UNL1        0.0175
     36 C          63.6212   83.9401    9.8238 C.ar    1  UNL1        0.0053
     37 C          63.5287   83.7226   11.3050 C.ar    1  UNL1        0.0715
     38 C          62.6462   84.6036   12.1387 C.ar    1  UNL1        0.0053
     39 C          61.8563   85.7021   11.4912 C.ar    1  UNL1        0.0175
     40 C          64.3186   82.6241   11.9526 C.3     1  UNL1        0.4186
     41 F          65.1085   81.5256   12.6002 F       1  UNL1       -0.1659
     42 F          64.7185   82.1142   10.5998 F       1  UNL1       -0.1659
     43 F          63.9186   83.1339   13.3054 F       1  UNL1       -0.1659
@<TRIPOS>BOND
     1    21    22    1
     2    22    23   ar
     3    23    24   ar
     4    24    25    1
     5    24    26   ar
     6    26    20    1
     7    20    13    1
     8    13     7    1
     9     7     8   am
    10     8     9    2
    11     8    10   am
    12    10     1    1
    13     1     2    1
    14     2     3    1
    15     3     4    1
    16     4    28    1
    17    28    29    1
    18    29    30   ar
    19    30    31   ar
    20    31    32   ar
    21    32    34    1
    22    34    35   ar
    23    35    36   ar
    24    36    37   ar
    25    37    40    1
    26    40    41    1
    27    40    42    1
    28    40    43    1
    29    37    38   ar
    30    38    39   ar
    31    32    33   ar
    32     4     5    1
    33     5     6    1
    34    13    14    1
    35    14    15   ar
    36    15    16   ar
    37    16    17   ar
    38    17    18   ar
    39    18    19   ar
    40    26    27   ar
    41    27    22   ar
    42     6     1    1
    43    19    14   ar
    44    33    29   ar
    45    39    34   ar
    46     7    11    1
    47    10    12    1
@<TRIPOS>MOLECULE
*****
 43 47 0 0 0
SMALL
GASTEIGER

@<TRIPOS>ATOM
      1 C          59.5383   92.4627    4.3257 C.3     1  UNL1        0.0758
      2 C          60.6813   91.5605    4.6855 C.3     1  UNL1        0.0370
      3 C          60.4313   90.3150    5.4830 C.3     1  UNL1        0.0741
      4 N          59.0382   89.9716    5.9207 N.3     1  UNL1       -0.2688
      5 C          57.8952   90.8738    5.5608 C.3     1  UNL1        0.0741
      6 C          58.1453   92.1194    4.7634 C.3     1  UNL1        0.0370
      7 N          60.0060   94.9040    1.2318 N.am    1  UNL1       -0.2848
      8 C          59.7560   93.6584    2.0294 C.2     1  UNL1        0.3010
      9 O          59.4737   92.3629    1.3280 O.2     1  UNL1       -0.2528
     10 N          59.7883   93.7084    3.5282 N.am    1  UNL1       -0.2905
     11 H          60.1913   95.7544    1.6921 H       1  UNL1        0.1513
     12 H          59.9736   94.5587    3.9885 H       1  UNL1        0.1509
     13 C          59.9737   94.8541   -0.2670 C.3     1  UNL1        0.1199
     14 C          61.1625   94.3437   -1.0261 C.ar    1  UNL1       -0.0025
     15 C          62.4996   94.2521   -0.3526 C.ar    1  UNL1       -0.0026
     16 C          63.6884   93.7417   -1.1118 C.ar    1  UNL1       -0.0003
     17 C          63.5400   93.3230   -2.5445 C.ar    1  UNL1       -0.0000
     18 C          62.2029   93.4145   -3.2180 C.ar    1  UNL1       -0.0003
     19 C          61.0141   93.9249   -2.4588 C.ar    1  UNL1       -0.0026
     20 C          58.7527   95.3145   -1.0066 C.3     1  UNL1        0.1510
     21 C          55.8497   91.1366   -2.4203 C.3     1  UNL1        0.0540
     22 C          56.6256   92.4192   -2.4756 C.ar    1  UNL1        0.0801
     23 C          56.8544   93.2594   -3.6970 C.ar    1  UNL1        0.0308
     24 C          57.6790   94.4462   -3.2954 C.ar    1  UNL1        0.0572
     25 C          58.1416   95.5465   -4.2038 C.3     1  UNL1        0.0517
     26 N          57.9599   94.3396   -1.8257 N.ar    1  UNL1       -0.2532
     27 N          57.3088   93.0868   -1.3191 N.ar    1  UNL1       -0.1739
     28 C          58.7882   88.7260    6.7182 C.3     1  UNL1        0.1007
     29 C          59.7360   88.3332    7.8124 C.ar    1  UNL1        0.0129
     30 C          60.1315   86.9326    8.1756 C.ar    1  UNL1        0.0176
     31 C          61.0947   87.0058    9.3232 C.ar    1  UNL1        0.0799
     32 N          61.2944   88.4516    9.6693 N.ar    1  UNL1       -0.3038
     33 C          60.4547   89.2720    8.7356 C.ar    1  UNL1        0.0772
     34 C          62.1786   88.9836   10.7580 C.ar    1  UNL1        0.0640
     35 C          62.5721   90.4310   10.7645 C.ar    1  UNL1        0.0175
     36 C          63.4563   90.9630   11.8531 C.ar    1  UNL1        0.0053
     37 C          63.9469   90.0476   12.9353 C.ar    1  UNL1        0.0715
     38 C          63.5534   88.6002   12.9289 C.ar    1  UNL1        0.0053
     39 C          62.6692   88.0682   11.8403 C.ar    1  UNL1        0.0175
     40 C          64.8310   90.5796   14.0240 C.3     1  UNL1        0.4186
     41 F          65.7152   91.1116   15.1127 F       1  UNL1       -0.1659
     42 F          65.5269   91.4600   13.0286 F       1  UNL1       -0.1659
     43 F          64.1351   89.6993   15.0194 F       1  UNL1       -0.1659
@<TRIPOS>BOND
     1    21    22    1
     2    22    23   ar
     3    23    24   ar
     4    24    25    1
     5    24    26   ar
     6    26    20    1
     7    20    13    1
     8    13     7    1
     9     7     8   am
    10     8     9    2
    11     8    10   am
    12    10     1    1
    13     1     2    1
    14     2     3    1
    15     3     4    1
    16     4    28    1
    17    28    29    1
    18    29    30   ar
    19    30    31   ar
    20    31    32   ar
    21    32    34    1
    22    34    35   ar
    23    35    36   ar
    24    36    37   ar
    25    37    40    1
    26    40    41    1
    27    40    42    1
    28    40    43    1
    29    37    38   ar
    30    38    39   ar
    31    32    33   ar
    32     4     5    1
    33     5     6    1
    34    13    14    1
    35    14    15   ar
    36    15    16   ar
    37    16    17   ar
    38    17    18   ar
    39    18    19   ar
    40    26    27   ar
    41    27    22   ar
    42     6     1    1
    43    19    14   ar
    44    33    29   ar
    45    39    34   ar
    46     7    11    1
    47    10    12    1
