@<TRIPOS>MOLECULE
*****
 17 18 0 0 0
SMALL
GASTEIGER

@<TRIPOS>ATOM
      1 C          63.6464   83.7738   10.7180 C.ar    1  UNL1        0.1386
      2 C          63.7517   84.1184    9.2620 C.ar    1  UNL1        0.0369
      3 C          62.8705   85.1824    8.6775 C.ar    1  UNL1        0.0046
      4 C          61.8841   85.9016    9.5490 C.ar    1  UNL1        0.0173
      5 C          61.7789   85.5570   11.0050 C.ar    1  UNL1        0.0046
      6 C          62.6600   84.4931   11.5895 C.ar    1  UNL1        0.0369
      7 C          61.0030   86.9656    8.9645 C.ar    1  UNL1        0.0754
      8 C          59.9284   86.7554    7.9392 C.ar    1  UNL1        0.0409
      9 C          59.3030   88.0864    7.6437 C.ar    1  UNL1        0.1214
     10 N          59.9911   89.1192    8.4862 N.ar    1  UNL1       -0.1711
     11 N          61.0417   88.4265    9.3025 N.ar    1  UNL1       -0.2757
     12 H          61.6499   88.8553    9.9470 H       1  UNL1        0.1889
     13 O          64.5275   82.7099   11.3025 O.3     1  UNL1       -0.4755
     14 C          64.0444   81.8889   12.4612 C.3     1  UNL1        0.2054
     15 C          62.9654   80.8669   12.2581 C.3     1  UNL1        0.0473
     16 C          61.1665   81.0398   14.1246 C.3     1  UNL1        0.0001
     17 C          62.2612   80.2741   13.4425 C.3     1  UNL1        0.0038
@<TRIPOS>BOND
     1    16    17    1
     2    17    15    1
     3    15    14    1
     4    14    13    1
     5    13     1    1
     6     1     2   ar
     7     2     3   ar
     8     3     4   ar
     9     4     7    1
    10     7     8   ar
    11     8     9   ar
    12     9    10   ar
    13    10    11   ar
    14     4     5   ar
    15     5     6   ar
    16     6     1   ar
    17    11     7   ar
    18    11    12    1
@<TRIPOS>MOLECULE
*****
 17 18 0 0 0
SMALL
GASTEIGER

@<TRIPOS>ATOM
      1 C          63.1822   89.9808   12.7829 C.ar    1  UNL1        0.1386
      2 C          63.8512   89.4791   14.0281 C.ar    1  UNL1        0.0369
      3 C          65.0782   90.1666   14.5493 C.ar    1  UNL1        0.0046
      4 C          65.6362   91.3559   13.8253 C.ar    1  UNL1        0.0173
      5 C          64.9671   91.8577   12.5801 C.ar    1  UNL1        0.0046
      6 C          63.7401   91.1701   12.0589 C.ar    1  UNL1        0.0369
      7 C          66.8632   92.0435   14.3466 C.ar    1  UNL1        0.0754
      8 C          66.9306   92.9320   15.5533 C.ar    1  UNL1        0.0409
      9 C          68.3473   93.4009   15.7052 C.ar    1  UNL1        0.1214
     10 N          69.1555   92.8023   14.5923 N.ar    1  UNL1       -0.1711
     11 N          68.2383   91.9634   13.7527 N.ar    1  UNL1       -0.2757
     12 H          68.4939   91.4502   12.9523 H       1  UNL1        0.1889
     13 O          61.9552   89.2932   12.2616 O.3     1  UNL1       -0.4755
     14 C          61.9234   88.7826   10.8516 C.3     1  UNL1        0.2054
     15 C          62.1856   87.3322   10.5731 C.3     1  UNL1        0.0473
     16 C          62.7694   85.6120    8.7156 C.3     1  UNL1        0.0001
     17 C          61.9608   86.7802    9.1966 C.3     1  UNL1        0.0038
@<TRIPOS>BOND
     1    16    17    1
     2    17    15    1
     3    15    14    1
     4    14    13    1
     5    13     1    1
     6     1     2   ar
     7     2     3   ar
     8     3     4   ar
     9     4     7    1
    10     7     8   ar
    11     8     9   ar
    12     9    10   ar
    13    10    11   ar
    14     4     5   ar
    15     5     6   ar
    16     6     1   ar
    17    11     7   ar
    18    11    12    1
@<TRIPOS>MOLECULE
*****
 17 18 0 0 0
SMALL
GASTEIGER

@<TRIPOS>ATOM
      1 C          62.0682   88.9085   11.2983 C.ar    1  UNL1        0.1386
      2 C          62.2156   89.9322   10.2119 C.ar    1  UNL1        0.0369
      3 C          63.1846   91.0654   10.3756 C.ar    1  UNL1        0.0046
      4 C          64.0062   91.1750   11.6258 C.ar    1  UNL1        0.0173
      5 C          63.8587   90.1513   12.7122 C.ar    1  UNL1        0.0046
      6 C          62.8897   89.0181   12.5485 C.ar    1  UNL1        0.0369
      7 C          64.9752   92.3082   11.7896 C.ar    1  UNL1        0.0754
      8 C          65.4054   93.2626   10.7153 C.ar    1  UNL1        0.0409
      9 C          66.3802   94.2303   11.3182 C.ar    1  UNL1        0.1214
     10 N          66.5524   93.8739   12.7650 N.ar    1  UNL1       -0.1711
     11 N          65.6841   92.6861   13.0563 N.ar    1  UNL1       -0.2757
     12 H          65.5950   92.2338   13.9263 H       1  UNL1        0.1889
     13 O          61.0992   87.7753   11.1345 O.3     1  UNL1       -0.4755
     14 C          61.5431   86.3658   11.3918 C.3     1  UNL1        0.2054
     15 C          62.3724   85.6428   10.3722 C.3     1  UNL1        0.0473
     16 C          62.8710   85.1284    7.8748 C.3     1  UNL1        0.0001
     17 C          62.2798   86.0227    8.9241 C.3     1  UNL1        0.0038
@<TRIPOS>BOND
     1    16    17    1
     2    17    15    1
     3    15    14    1
     4    14    13    1
     5    13     1    1
     6     1     2   ar
     7     2     3   ar
     8     3     4   ar
     9     4     7    1
    10     7     8   ar
    11     8     9   ar
    12     9    10   ar
    13    10    11   ar
    14     4     5   ar
    15     5     6   ar
    16     6     1   ar
    17    11     7   ar
    18    11    12    1
@<TRIPOS>MOLECULE
*****
 17 18 0 0 0
SMALL
GASTEIGER

@<TRIPOS>ATOM
      1 C          60.5579   87.6534    9.2231 C.ar    1  UNL1        0.1386
      2 C          60.6175   87.4089   10.7018 C.ar    1  UNL1        0.0369
      3 C          61.4609   86.2933   11.2442 C.ar    1  UNL1        0.0046
      4 C          62.2447   85.4222   10.3079 C.ar    1  UNL1        0.0173
      5 C          62.1852   85.6667    8.8291 C.ar    1  UNL1        0.0046
      6 C          61.3418   86.7823    8.2867 C.ar    1  UNL1        0.0369
      7 C          63.0882   84.3067   10.8503 C.ar    1  UNL1        0.0754
      8 C          63.1188   83.8368   12.2744 C.ar    1  UNL1        0.0409
      9 C          64.0986   82.7048   12.3681 C.ar    1  UNL1        0.1214
     10 N          64.6735   82.4752   11.0018 N.ar    1  UNL1       -0.1711
     11 N          64.0490   83.4652   10.0638 N.ar    1  UNL1       -0.2757
     12 H          64.2368   83.5481    9.1009 H       1  UNL1        0.1889
     13 O          59.7145   88.7689    8.6807 O.3     1  UNL1       -0.4755
     14 C          59.2242   88.7179    7.2640 C.3     1  UNL1        0.2054
     15 C          59.5788   89.8176    6.3075 C.3     1  UNL1        0.0473
     16 C          58.8503   91.7879    4.7787 C.3     1  UNL1        0.0001
     17 C          58.4947   90.6297    5.6631 C.3     1  UNL1        0.0038
@<TRIPOS>BOND
     1    16    17    1
     2    17    15    1
     3    15    14    1
     4    14    13    1
     5    13     1    1
     6     1     2   ar
     7     2     3   ar
     8     3     4   ar
     9     4     7    1
    10     7     8   ar
    11     8     9   ar
    12     9    10   ar
    13    10    11   ar
    14     4     5   ar
    15     5     6   ar
    16     6     1   ar
    17    11     7   ar
    18    11    12    1
@<TRIPOS>MOLECULE
*****
 17 18 0 0 0
SMALL
GASTEIGER

@<TRIPOS>ATOM
      1 C          63.8049   90.9376   12.3102 C.ar    1  UNL1        0.1386
      2 C          63.4072   91.3448   10.9225 C.ar    1  UNL1        0.0369
      3 C          62.6984   90.3704   10.0290 C.ar    1  UNL1        0.0046
      4 C          62.3873   88.9888   10.5233 C.ar    1  UNL1        0.0173
      5 C          62.7850   88.5816   11.9111 C.ar    1  UNL1        0.0046
      6 C          63.4938   89.5560   12.8046 C.ar    1  UNL1        0.0369
      7 C          61.6785   88.0145    9.6299 C.ar    1  UNL1        0.0754
      8 C          60.3154   88.1977    9.0312 C.ar    1  UNL1        0.0409
      9 C          60.0028   86.9823    8.2096 C.ar    1  UNL1        0.1214
     10 N          61.1728   86.0479    8.3004 N.ar    1  UNL1       -0.1711
     11 N          62.2084   86.6859    9.1782 N.ar    1  UNL1       -0.2757
     12 H          63.0824   86.3002    9.4162 H       1  UNL1        0.1889
     13 O          64.5137   91.9119   13.2037 O.3     1  UNL1       -0.4755
     14 C          65.6960   92.6782   12.6892 C.3     1  UNL1        0.2054
     15 C          66.9228   92.8246   13.5398 C.3     1  UNL1        0.0473
     16 C          67.6007   92.5665   16.0346 C.3     1  UNL1        0.0001
     17 C          66.7959   93.2537   14.9715 C.3     1  UNL1        0.0038
@<TRIPOS>BOND
     1    16    17    1
     2    17    15    1
     3    15    14    1
     4    14    13    1
     5    13     1    1
     6     1     2   ar
     7     2     3   ar
     8     3     4   ar
     9     4     7    1
    10     7     8   ar
    11     8     9   ar
    12     9    10   ar
    13    10    11   ar
    14     4     5   ar
    15     5     6   ar
    16     6     1   ar
    17    11     7   ar
    18    11    12    1
@<TRIPOS>MOLECULE
*****
 17 18 0 0 0
SMALL
GASTEIGER

@<TRIPOS>ATOM
      1 C          64.3250   84.1892   13.3922 C.ar    1  UNL1        0.1386
      2 C          65.1209   84.6271   14.5858 C.ar    1  UNL1        0.0369
      3 C          65.0091   86.0370   15.0856 C.ar    1  UNL1        0.0046
      4 C          64.1014   87.0089   14.3918 C.ar    1  UNL1        0.0173
      5 C          63.3054   86.5709   13.1983 C.ar    1  UNL1        0.0046
      6 C          63.4172   85.1611   12.6985 C.ar    1  UNL1        0.0369
      7 C          63.9896   88.4187   14.8916 C.ar    1  UNL1        0.0754
      8 C          64.5921   89.6326   14.2485 C.ar    1  UNL1        0.0409
      9 C          64.2305   90.8263   15.0817 C.ar    1  UNL1        0.1214
     10 N          63.4045   90.3503   16.2397 N.ar    1  UNL1       -0.1711
     11 N          63.2556   88.8624   16.1222 N.ar    1  UNL1       -0.2757
     12 H          62.7627   88.2793   16.7437 H       1  UNL1        0.1889
     13 O          64.4368   82.7793   12.8924 O.3     1  UNL1       -0.4755
     14 C          63.5565   82.3084   11.7729 C.3     1  UNL1        0.2054
     15 C          62.8573   80.9852   11.8744 C.3     1  UNL1        0.0473
     16 C          61.4702   81.2086   14.0598 C.3     1  UNL1        0.0001
     17 C          62.4531   80.4515   13.2167 C.3     1  UNL1        0.0038
@<TRIPOS>BOND
     1    16    17    1
     2    17    15    1
     3    15    14    1
     4    14    13    1
     5    13     1    1
     6     1     2   ar
     7     2     3   ar
     8     3     4   ar
     9     4     7    1
    10     7     8   ar
    11     8     9   ar
    12     9    10   ar
    13    10    11   ar
    14     4     5   ar
    15     5     6   ar
    16     6     1   ar
    17    11     7   ar
    18    11    12    1
@<TRIPOS>MOLECULE
*****
 17 18 0 0 0
SMALL
GASTEIGER

@<TRIPOS>ATOM
      1 C          61.9844   85.6074    9.1493 C.ar    1  UNL1        0.1386
      2 C          63.0793   84.5834    9.2012 C.ar    1  UNL1        0.0369
      3 C          63.5562   84.0616   10.5242 C.ar    1  UNL1        0.0046
      4 C          62.9382   84.5639   11.7953 C.ar    1  UNL1        0.0173
      5 C          61.8434   85.5879   11.7434 C.ar    1  UNL1        0.0046
      6 C          61.3665   86.1097   10.4204 C.ar    1  UNL1        0.0369
      7 C          63.4151   84.0422   13.1183 C.ar    1  UNL1        0.0754
      8 C          64.3577   84.7401   14.0535 C.ar    1  UNL1        0.0409
      9 C          64.5583   83.8602   15.2516 C.ar    1  UNL1        0.1214
     10 N          63.7398   82.6184   15.0569 N.ar    1  UNL1       -0.1711
     11 N          63.0333   82.7309   13.7385 N.ar    1  UNL1       -0.2757
     12 H          62.4256   82.0615   13.3487 H       1  UNL1        0.1889
     13 O          61.5075   86.1291    7.8263 O.3     1  UNL1       -0.4755
     14 C          60.0721   85.9585    7.4261 C.3     1  UNL1        0.2054
     15 C          59.0743   87.0350    7.7349 C.3     1  UNL1        0.0473
     16 C          60.1290   89.1556    8.8031 C.3     1  UNL1        0.0001
     17 C          59.4730   88.4778    7.6368 C.3     1  UNL1        0.0038
@<TRIPOS>BOND
     1    16    17    1
     2    17    15    1
     3    15    14    1
     4    14    13    1
     5    13     1    1
     6     1     2   ar
     7     2     3   ar
     8     3     4   ar
     9     4     7    1
    10     7     8   ar
    11     8     9   ar
    12     9    10   ar
    13    10    11   ar
    14     4     5   ar
    15     5     6   ar
    16     6     1   ar
    17    11     7   ar
    18    11    12    1
@<TRIPOS>MOLECULE
*****
 17 18 0 0 0
SMALL
GASTEIGER

@<TRIPOS>ATOM
      1 C          61.7158   87.1497    9.6997 C.ar    1  UNL1        0.1386
      2 C          61.4834   86.9126   11.1625 C.ar    1  UNL1        0.0369
      3 C          61.9911   85.6578   11.8088 C.ar    1  UNL1        0.0046
      4 C          62.7311   84.6401   10.9924 C.ar    1  UNL1        0.0173
      5 C          62.9635   84.8772    9.5296 C.ar    1  UNL1        0.0046
      6 C          62.4558   86.1320    8.8833 C.ar    1  UNL1        0.0369
      7 C          63.2388   83.3853   11.6388 C.ar    1  UNL1        0.0754
      8 C          62.3967   82.2558   12.1535 C.ar    1  UNL1        0.0409
      9 C          63.3151   81.2121   12.7168 C.ar    1  UNL1        0.1214
     10 N          64.7249   81.6966   12.5501 N.ar    1  UNL1       -0.1711
     11 N          64.6777   83.0397   11.8839 N.ar    1  UNL1       -0.2757
     12 H          65.4547   83.5967   11.6488 H       1  UNL1        0.1889
     13 O          61.2081   88.4045    9.0533 O.3     1  UNL1       -0.4755
     14 C          60.1674   89.2354    9.7434 C.3     1  UNL1        0.2054
     15 C          60.5802   90.4001   10.5939 C.3     1  UNL1        0.0473
     16 C          63.0410   91.1115   10.1601 C.3     1  UNL1        0.0001
     17 C          61.9998   90.5200   11.0634 C.3     1  UNL1        0.0038
@<TRIPOS>BOND
     1    16    17    1
     2    17    15    1
     3    15    14    1
     4    14    13    1
     5    13     1    1
     6     1     2   ar
     7     2     3   ar
     8     3     4   ar
     9     4     7    1
    10     7     8   ar
    11     8     9   ar
    12     9    10   ar
    13    10    11   ar
    14     4     5   ar
    15     5     6   ar
    16     6     1   ar
    17    11     7   ar
    18    11    12    1
@<TRIPOS>MOLECULE
*****
 17 18 0 0 0
SMALL
GASTEIGER

@<TRIPOS>ATOM
      1 C          62.4704   86.3306   10.1143 C.ar    1  UNL1        0.1386
      2 C          62.1727   86.3457   11.5843 C.ar    1  UNL1        0.0369
      3 C          62.3499   85.0983   12.3983 C.ar    1  UNL1        0.0046
      4 C          62.8248   83.8358   11.7422 C.ar    1  UNL1        0.0173
      5 C          63.1225   83.8207   10.2722 C.ar    1  UNL1        0.0046
      6 C          62.9453   85.0681    9.4582 C.ar    1  UNL1        0.0369
      7 C          63.0020   82.5884   12.5562 C.ar    1  UNL1        0.0754
      8 C          62.5558   81.2104   12.1664 C.ar    1  UNL1        0.0409
      9 C          62.9346   80.2703   13.2722 C.ar    1  UNL1        0.1214
     10 N          63.6148   81.0673   14.3455 N.ar    1  UNL1       -0.1711
     11 N          63.6565   82.4999   13.9030 N.ar    1  UNL1       -0.2757
     12 H          64.0452   83.2505   14.4079 H       1  UNL1        0.1889
     13 O          62.2932   87.5780    9.3003 O.3     1  UNL1       -0.4755
     14 C          60.9957   88.3289    9.3514 C.3     1  UNL1        0.2054
     15 C          59.6957   87.5806    9.3542 C.3     1  UNL1        0.0473
     16 C          59.9874   85.8699    7.4207 C.3     1  UNL1        0.0001
     17 C          59.1905   86.9499    8.0904 C.3     1  UNL1        0.0038
@<TRIPOS>BOND
     1    16    17    1
     2    17    15    1
     3    15    14    1
     4    14    13    1
     5    13     1    1
     6     1     2   ar
     7     2     3   ar
     8     3     4   ar
     9     4     7    1
    10     7     8   ar
    11     8     9   ar
    12     9    10   ar
    13    10    11   ar
    14     4     5   ar
    15     5     6   ar
    16     6     1   ar
    17    11     7   ar
    18    11    12    1
