@<TRIPOS>MOLECULE
*****
 29 32 0 0 0
SMALL
GASTEIGER

@<TRIPOS>ATOM
      1 C          63.5812   87.0815   13.6282 C.ar    1  UNL1        0.1344
      2 C          64.4425   87.4650   14.7949 C.ar    1  UNL1        0.0345
      3 C          65.0192   88.8471   14.8791 C.ar    1  UNL1        0.0044
      4 C          64.7346   89.8458   13.7965 C.ar    1  UNL1        0.0193
      5 C          63.8734   89.4622   12.6299 C.ar    1  UNL1        0.1003
      6 N          63.2967   88.0801   12.5457 N.ar    1  UNL1       -0.2290
      7 C          65.3114   91.2279   13.8807 C.ar    1  UNL1        0.0028
      8 C          65.6677   91.8118   15.2157 C.ar    1  UNL1        0.0001
      9 C          66.2445   93.1940   15.2998 C.ar    1  UNL1        0.0013
     10 C          66.4648   93.9922   14.0490 C.ar    1  UNL1        0.0183
     11 C          66.1084   93.4082   12.7142 C.ar    1  UNL1        0.1056
     12 C          65.5317   92.0261   12.6300 C.ar    1  UNL1        0.0184
     13 S          66.3288   94.2064   11.4635 S.O2    1  UNL1        0.0070
     14 O          66.1252   95.4751   12.2373 O.2     1  UNL1       -0.1687
     15 O          66.5323   92.9377   10.6896 O.2     1  UNL1       -0.1687
     16 C          66.5491   95.0047   10.2127 C.3     1  UNL1        0.1339
     17 C          66.1394   96.1151    9.2912 C.3     1  UNL1        0.0257
     18 C          67.3405   95.2768    8.9679 C.3     1  UNL1        0.0257
     19 C          63.8945   84.5038   13.7125 C.2     1  UNL1        0.2536
     20 O          65.3612   84.6903   13.9652 O.2     1  UNL1       -0.2697
     21 N          63.0045   85.6993   13.5440 N.am    1  UNL1       -0.2657
     22 H          62.0418   85.5769   13.3781 H       1  UNL1        0.1566
     23 C          61.5876   78.9752   13.3758 C.3     1  UNL1        0.0737
     24 C          62.1643   80.3573   13.4600 C.ar    1  UNL1        0.1396
     25 N          63.3018   80.7511   12.5651 N.ar    1  UNL1       -0.2290
     26 C          63.8786   82.1333   12.6492 C.ar    1  UNL1        0.1063
     27 C          63.3177   83.1216   13.6283 C.ar    1  UNL1        0.0919
     28 C          62.1802   82.7278   14.5232 C.ar    1  UNL1        0.1063
     29 N          61.6035   81.3457   14.4390 N.ar    1  UNL1       -0.2290
@<TRIPOS>BOND
     1    23    24    1
     2    24    25   ar
     3    25    26   ar
     4    26    27   ar
     5    27    19    1
     6    19    20    2
     7    19    21   am
     8    21     1    1
     9     1     2   ar
    10     2     3   ar
    11     3     4   ar
    12     4     7    1
    13     7     8   ar
    14     8     9   ar
    15     9    10   ar
    16    10    11   ar
    17    11    13    1
    18    13    14    2
    19    13    15    2
    20    13    16    1
    21    16    17    1
    22    17    18    1
    23    11    12   ar
    24     4     5   ar
    25     5     6   ar
    26    27    28   ar
    27    28    29   ar
    28    29    24   ar
    29     6     1   ar
    30    12     7   ar
    31    18    16    1
    32    21    22    1
@<TRIPOS>MOLECULE
*****
 29 32 0 0 0
SMALL
GASTEIGER

@<TRIPOS>ATOM
      1 C          60.5893   87.0564    9.2347 C.ar    1  UNL1        0.1344
      2 C          59.8316   86.5939    8.0256 C.ar    1  UNL1        0.0345
      3 C          59.3679   87.5902    7.0047 C.ar    1  UNL1        0.0044
      4 C          59.6620   89.0491    7.1929 C.ar    1  UNL1        0.0193
      5 C          60.4197   89.5115    8.4020 C.ar    1  UNL1        0.1003
      6 N          60.8833   88.5151    9.4230 N.ar    1  UNL1       -0.2290
      7 C          59.1983   90.0455    6.1720 C.ar    1  UNL1        0.0028
      8 C          57.7408   90.3821    6.0606 C.ar    1  UNL1        0.0001
      9 C          57.2771   91.3785    5.0396 C.ar    1  UNL1        0.0013
     10 C          58.2710   92.0382    4.1302 C.ar    1  UNL1        0.0183
     11 C          59.7284   91.7016    4.2417 C.ar    1  UNL1        0.1056
     12 C          60.1921   90.7052    5.2626 C.ar    1  UNL1        0.0184
     13 S          60.7222   92.3613    3.3322 S.O2    1  UNL1        0.0070
     14 O          59.6127   93.1288    2.6766 O.2     1  UNL1       -0.1687
     15 O          61.8317   91.5938    3.9879 O.2     1  UNL1       -0.1687
     16 C          61.7160   93.0211    2.4227 C.3     1  UNL1        0.1339
     17 C          63.0454   93.0144    1.7279 C.3     1  UNL1        0.0257
     18 C          62.1079   94.1705    1.5424 C.3     1  UNL1        0.0257
     19 C          62.3287   85.3016   10.0381 C.2     1  UNL1        0.2536
     20 O          63.1407   85.5395    8.7996 O.2     1  UNL1       -0.2697
     21 N          61.0530   86.0600   10.2557 N.am    1  UNL1       -0.2657
     22 H          60.5200   85.9038   11.0685 H       1  UNL1        0.1566
     23 C          64.1833   81.3161   14.1217 C.3     1  UNL1        0.0737
     24 C          63.7196   82.3125   13.1008 C.ar    1  UNL1        0.1396
     25 N          64.0389   82.1038   11.6501 N.ar    1  UNL1       -0.2290
     26 C          63.5753   83.1001   10.6292 C.ar    1  UNL1        0.1063
     27 C          62.7923   84.3052   11.0590 C.ar    1  UNL1        0.0919
     28 C          62.4730   84.5139   12.5096 C.ar    1  UNL1        0.1063
     29 N          62.9367   83.5175   13.5305 N.ar    1  UNL1       -0.2290
@<TRIPOS>BOND
     1    23    24    1
     2    24    25   ar
     3    25    26   ar
     4    26    27   ar
     5    27    19    1
     6    19    20    2
     7    19    21   am
     8    21     1    1
     9     1     2   ar
    10     2     3   ar
    11     3     4   ar
    12     4     7    1
    13     7     8   ar
    14     8     9   ar
    15     9    10   ar
    16    10    11   ar
    17    11    13    1
    18    13    14    2
    19    13    15    2
    20    13    16    1
    21    16    17    1
    22    17    18    1
    23    11    12   ar
    24     4     5   ar
    25     5     6   ar
    26    27    28   ar
    27    28    29   ar
    28    29    24   ar
    29     6     1   ar
    30    12     7   ar
    31    18    16    1
    32    21    22    1
@<TRIPOS>MOLECULE
*****
 29 32 0 0 0
SMALL
GASTEIGER

@<TRIPOS>ATOM
      1 C          63.5292   85.3659   13.4330 C.ar    1  UNL1        0.1344
      2 C          64.3085   85.7323   14.6613 C.ar    1  UNL1        0.0345
      3 C          64.6202   87.1708   14.9503 C.ar    1  UNL1        0.0044
      4 C          64.1526   88.2429   14.0112 C.ar    1  UNL1        0.0193
      5 C          63.3733   87.8764   12.7830 C.ar    1  UNL1        0.1003
      6 N          63.0616   86.4379   12.4939 N.ar    1  UNL1       -0.2290
      7 C          64.4643   89.6814   14.3002 C.ar    1  UNL1        0.0028
      8 C          64.2657   90.2287   15.6827 C.ar    1  UNL1        0.0001
      9 C          64.5774   91.6672   15.9717 C.ar    1  UNL1        0.0013
     10 C          65.0876   92.5584   14.8783 C.ar    1  UNL1        0.0183
     11 C          65.2861   92.0111   13.4959 C.ar    1  UNL1        0.1056
     12 C          64.9745   90.5726   13.2069 C.ar    1  UNL1        0.0184
     13 S          65.7963   92.9023   12.4026 S.O2    1  UNL1        0.0070
     14 O          64.7970   92.3102   11.4536 O.2     1  UNL1       -0.1687
     15 O          66.7957   93.4944   13.3516 O.2     1  UNL1       -0.1687
     16 C          66.3065   93.7936   11.3092 C.3     1  UNL1        0.1339
     17 C          66.3315   95.1296   10.6277 C.3     1  UNL1        0.0257
     18 C          67.1651   94.0012   10.0970 C.3     1  UNL1        0.0257
     19 C          63.6481   83.3130   11.8451 C.2     1  UNL1        0.2536
     20 O          64.3904   84.1372   10.8353 O.2     1  UNL1       -0.2697
     21 N          63.2176   83.9274   13.1440 N.am    1  UNL1       -0.2657
     22 H          62.7304   83.3864   13.8068 H       1  UNL1        0.1566
     23 C          62.4014   77.5590   10.6889 C.3     1  UNL1        0.0737
     24 C          62.7131   78.9975   10.9779 C.ar    1  UNL1        0.1396
     25 N          63.1024   79.9197    9.8608 N.ar    1  UNL1       -0.2290
     26 C          63.4141   81.3582   10.1499 C.ar    1  UNL1        0.1063
     27 C          63.3364   81.8745   11.5560 C.ar    1  UNL1        0.0919
     28 C          62.9471   80.9523   12.6731 C.ar    1  UNL1        0.1063
     29 N          62.6354   79.5138   12.3841 N.ar    1  UNL1       -0.2290
@<TRIPOS>BOND
     1    23    24    1
     2    24    25   ar
     3    25    26   ar
     4    26    27   ar
     5    27    19    1
     6    19    20    2
     7    19    21   am
     8    21     1    1
     9     1     2   ar
    10     2     3   ar
    11     3     4   ar
    12     4     7    1
    13     7     8   ar
    14     8     9   ar
    15     9    10   ar
    16    10    11   ar
    17    11    13    1
    18    13    14    2
    19    13    15    2
    20    13    16    1
    21    16    17    1
    22    17    18    1
    23    11    12   ar
    24     4     5   ar
    25     5     6   ar
    26    27    28   ar
    27    28    29   ar
    28    29    24   ar
    29     6     1   ar
    30    12     7   ar
    31    18    16    1
    32    21    22    1
@<TRIPOS>MOLECULE
*****
 29 32 0 0 0
SMALL
GASTEIGER

@<TRIPOS>ATOM
      1 C          63.8717   90.2895   12.3170 C.ar    1  UNL1        0.1344
      2 C          63.4345   91.1337   11.1567 C.ar    1  UNL1        0.0345
      3 C          62.4503   90.5912   10.1633 C.ar    1  UNL1        0.0044
      4 C          61.9033   89.2044   10.3301 C.ar    1  UNL1        0.0193
      5 C          62.3405   88.3603   11.4903 C.ar    1  UNL1        0.1003
      6 N          63.3247   88.9028   12.4838 N.ar    1  UNL1       -0.2290
      7 C          60.9191   88.6619    9.3366 C.ar    1  UNL1        0.0028
      8 C          60.5571   87.2063    9.3577 C.ar    1  UNL1        0.0001
      9 C          59.5729   86.6637    8.3643 C.ar    1  UNL1        0.0013
     10 C          58.9507   87.5768    7.3497 C.ar    1  UNL1        0.0183
     11 C          59.3127   89.0322    7.3286 C.ar    1  UNL1        0.1056
     12 C          60.2969   89.5748    8.3221 C.ar    1  UNL1        0.0184
     13 S          58.6904   89.9452    6.3141 S.O2    1  UNL1        0.0070
     14 O          57.3337   89.4101    6.6646 O.2     1  UNL1       -0.1687
     15 O          60.0471   90.4803    5.9635 O.2     1  UNL1       -0.1687
     16 C          58.0681   90.8581    5.2995 C.3     1  UNL1        0.1339
     17 C          56.8493   91.4884    4.6936 C.3     1  UNL1        0.0257
     18 C          58.2092   91.8091    4.1481 C.3     1  UNL1        0.0257
     19 C          65.9253   91.7842   12.8635 C.2     1  UNL1        0.2536
     20 O          66.0104   92.1939   11.4231 O.2     1  UNL1       -0.2697
     21 N          64.8559   90.8321   13.3105 N.am    1  UNL1       -0.2657
     22 H          64.8000   90.5632   14.2559 H       1  UNL1        0.1566
     23 C          69.8621   93.9544   16.8374 C.3     1  UNL1        0.0737
     24 C          68.8779   93.4119   15.8439 C.ar    1  UNL1        0.1396
     25 N          67.4061   93.5874   16.0738 N.ar    1  UNL1       -0.2290
     26 C          66.4219   93.0448   15.0803 C.ar    1  UNL1        0.1063
     27 C          66.9095   92.3268   13.8570 C.ar    1  UNL1        0.0919
     28 C          68.3813   92.1513   13.6271 C.ar    1  UNL1        0.1063
     29 N          69.3655   92.6939   14.6206 N.ar    1  UNL1       -0.2290
@<TRIPOS>BOND
     1    23    24    1
     2    24    25   ar
     3    25    26   ar
     4    26    27   ar
     5    27    19    1
     6    19    20    2
     7    19    21   am
     8    21     1    1
     9     1     2   ar
    10     2     3   ar
    11     3     4   ar
    12     4     7    1
    13     7     8   ar
    14     8     9   ar
    15     9    10   ar
    16    10    11   ar
    17    11    13    1
    18    13    14    2
    19    13    15    2
    20    13    16    1
    21    16    17    1
    22    17    18    1
    23    11    12   ar
    24     4     5   ar
    25     5     6   ar
    26    27    28   ar
    27    28    29   ar
    28    29    24   ar
    29     6     1   ar
    30    12     7   ar
    31    18    16    1
    32    21    22    1
@<TRIPOS>MOLECULE
*****
 29 32 0 0 0
SMALL
GASTEIGER

@<TRIPOS>ATOM
      1 C          57.0579   95.5327   -3.3685 C.ar    1  UNL1        0.1344
      2 C          57.8735   96.6780   -2.8457 C.ar    1  UNL1        0.0345
      3 C          59.2333   96.4267   -2.2647 C.ar    1  UNL1        0.0044
      4 C          59.7776   95.0301   -2.2064 C.ar    1  UNL1        0.0193
      5 C          58.9621   93.8849   -2.7291 C.ar    1  UNL1        0.1003
      6 N          57.6022   94.1362   -3.3101 N.ar    1  UNL1       -0.2290
      7 C          61.1375   94.7788   -1.6253 C.ar    1  UNL1        0.0028
      8 C          62.3423   95.4456   -2.2205 C.ar    1  UNL1        0.0001
      9 C          63.7021   95.1943   -1.6394 C.ar    1  UNL1        0.0013
     10 C          63.8572   94.2763   -0.4632 C.ar    1  UNL1        0.0183
     11 C          62.6525   93.6097    0.1318 C.ar    1  UNL1        0.1056
     12 C          61.2926   93.8609   -0.4492 C.ar    1  UNL1        0.0184
     13 S          62.8077   92.6917    1.3080 S.O2    1  UNL1        0.0070
     14 O          61.4950   92.0457    0.9769 O.2     1  UNL1       -0.1687
     15 O          64.1203   93.3378    1.6390 O.2     1  UNL1       -0.1687
     16 C          62.9628   91.7737    2.4841 C.3     1  UNL1        0.1339
     17 C          63.7572   90.7456    3.2337 C.3     1  UNL1        0.0257
     18 C          62.4370   91.2119    3.7717 C.3     1  UNL1        0.0257
     19 C          54.4959   95.8276   -3.0534 C.2     1  UNL1        0.2536
     20 O          54.6537   95.6201   -1.5763 O.2     1  UNL1       -0.2697
     21 N          55.6980   95.7839   -3.9495 N.am    1  UNL1       -0.2657
     22 H          55.5945   95.9202   -4.9190 H       1  UNL1        0.1566
     23 C          49.0565   96.8327   -5.3776 C.3     1  UNL1        0.0737
     24 C          50.4163   96.5815   -4.7966 C.ar    1  UNL1        0.1396
     25 N          51.6149   96.5114   -5.6957 N.ar    1  UNL1       -0.2290
     26 C          52.9747   96.2601   -5.1147 C.ar    1  UNL1        0.1063
     27 C          53.1361   96.0789   -3.6345 C.ar    1  UNL1        0.0919
     28 C          51.9375   96.1490   -2.7353 C.ar    1  UNL1        0.1063
     29 N          50.5777   96.4003   -3.3163 N.ar    1  UNL1       -0.2290
@<TRIPOS>BOND
     1    23    24    1
     2    24    25   ar
     3    25    26   ar
     4    26    27   ar
     5    27    19    1
     6    19    20    2
     7    19    21   am
     8    21     1    1
     9     1     2   ar
    10     2     3   ar
    11     3     4   ar
    12     4     7    1
    13     7     8   ar
    14     8     9   ar
    15     9    10   ar
    16    10    11   ar
    17    11    13    1
    18    13    14    2
    19    13    15    2
    20    13    16    1
    21    16    17    1
    22    17    18    1
    23    11    12   ar
    24     4     5   ar
    25     5     6   ar
    26    27    28   ar
    27    28    29   ar
    28    29    24   ar
    29     6     1   ar
    30    12     7   ar
    31    18    16    1
    32    21    22    1
@<TRIPOS>MOLECULE
*****
 29 32 0 0 0
SMALL
GASTEIGER

@<TRIPOS>ATOM
      1 C          63.4208   85.9031   12.9838 C.ar    1  UNL1        0.1344
      2 C          63.1860   87.1972   12.2624 C.ar    1  UNL1        0.0345
      3 C          63.4814   88.5002   12.9442 C.ar    1  UNL1        0.0044
      4 C          64.0115   88.5092   14.3474 C.ar    1  UNL1        0.0193
      5 C          64.2463   87.2152   15.0687 C.ar    1  UNL1        0.1003
      6 N          63.9509   85.9122   14.3869 N.ar    1  UNL1       -0.2290
      7 C          64.3068   89.8123   15.0292 C.ar    1  UNL1        0.0028
      8 C          63.2439   90.4920   15.8405 C.ar    1  UNL1        0.0001
      9 C          63.5392   91.7951   16.5223 C.ar    1  UNL1        0.0013
     10 C          64.8975   92.4184   16.3928 C.ar    1  UNL1        0.0183
     11 C          65.9603   91.7386   15.5815 C.ar    1  UNL1        0.1056
     12 C          65.6650   90.4356   14.8997 C.ar    1  UNL1        0.0184
     13 S          67.3185   92.3619   15.4520 S.O2    1  UNL1        0.0070
     14 O          67.5345   91.6237   14.1643 O.2     1  UNL1       -0.1687
     15 O          67.1025   93.1002   16.7397 O.2     1  UNL1       -0.1687
     16 C          68.6768   92.9852   15.3224 C.3     1  UNL1        0.1339
     17 C          70.0668   92.9654   14.7591 C.3     1  UNL1        0.0257
     18 C          69.6392   94.0846   15.6614 C.3     1  UNL1        0.0257
     19 C          63.7089   83.3254   12.8355 C.2     1  UNL1        0.2536
     20 O          64.5876   83.3537   14.0508 O.2     1  UNL1       -0.2697
     21 N          63.1255   84.6001   12.3020 N.am    1  UNL1       -0.2657
     22 H          62.5488   84.5815   11.5043 H       1  UNL1        0.1566
     23 C          62.5276   78.1132   10.1083 C.3     1  UNL1        0.0737
     24 C          62.8229   79.4162   10.7901 C.ar    1  UNL1        0.1396
     25 N          62.6551   79.5404   12.2754 N.ar    1  UNL1       -0.2290
     26 C          62.9504   80.8435   12.9572 C.ar    1  UNL1        0.1063
     27 C          63.4136   82.0223   12.1537 C.ar    1  UNL1        0.0919
     28 C          63.5814   81.8981   10.6683 C.ar    1  UNL1        0.1063
     29 N          63.2861   80.5951    9.9865 N.ar    1  UNL1       -0.2290
@<TRIPOS>BOND
     1    23    24    1
     2    24    25   ar
     3    25    26   ar
     4    26    27   ar
     5    27    19    1
     6    19    20    2
     7    19    21   am
     8    21     1    1
     9     1     2   ar
    10     2     3   ar
    11     3     4   ar
    12     4     7    1
    13     7     8   ar
    14     8     9   ar
    15     9    10   ar
    16    10    11   ar
    17    11    13    1
    18    13    14    2
    19    13    15    2
    20    13    16    1
    21    16    17    1
    22    17    18    1
    23    11    12   ar
    24     4     5   ar
    25     5     6   ar
    26    27    28   ar
    27    28    29   ar
    28    29    24   ar
    29     6     1   ar
    30    12     7   ar
    31    18    16    1
    32    21    22    1
