@<TRIPOS>MOLECULE
*****
 27 30 0 0 0
SMALL
GASTEIGER

@<TRIPOS>ATOM
      1 C          65.1356   92.2377   12.3268 C.ar    1  UNL1        0.0689
      2 C          64.4698   91.1054   13.0510 C.ar    1  UNL1        0.0162
      3 C          63.5193   90.2037   12.3207 C.ar    1  UNL1        0.0033
      4 C          63.2345   90.4343   10.8662 C.ar    1  UNL1        0.0239
      5 C          63.9002   91.5666   10.1420 C.ar    1  UNL1        0.0033
      6 C          64.8508   92.4684   10.8723 C.ar    1  UNL1        0.0162
      7 C          62.2839   89.5326   10.1359 C.ar    1  UNL1        0.1107
      8 N          61.1028   89.9705    9.3215 N.ar    1  UNL1       -0.2383
      9 C          60.4365   88.7432    8.7741 C.ar    1  UNL1        0.0878
     10 C          59.2286   88.5605    7.9036 C.ar    1  UNL1        0.0196
     11 C          58.7901   87.1814    7.5092 C.ar    1  UNL1        0.0016
     12 C          59.5594   85.9849    7.9852 C.ar    1  UNL1        0.0006
     13 C          60.7672   86.1676    8.8557 C.ar    1  UNL1        0.0080
     14 C          61.2057   87.5467    9.2501 C.ar    1  UNL1        0.0485
     15 S          62.3475   88.0346   10.0917 S.2     1  UNL1       -0.0665
     16 N          66.0861   93.1395   13.0571 N.pl3   1  UNL1       -0.1883
     17 C          67.7218   92.0679   15.3323 C.3     1  UNL1        0.1999
     18 S          66.9040   92.6037   14.1946 S.O2    1  UNL1        0.0591
     19 O          65.8702   93.0897   15.1667 O.2     1  UNL1       -0.1542
     20 O          67.9378   92.1177   13.2225 O.2     1  UNL1       -0.1542
     21 C          66.2189   94.5770   12.6498 C.3     1  UNL1        0.1602
     22 C          66.5673   94.9261   11.2332 C.ar    1  UNL1        0.0763
     23 C          65.9291   96.0040   10.4082 C.ar    1  UNL1        0.1149
     24 N          66.5825   96.0027    9.0580 N.ar    1  UNL1       -0.2228
     25 C          67.6246   94.9238    9.0485 C.ar    1  UNL1        0.1748
     26 N          67.6153   94.2584   10.3928 N.ar    1  UNL1       -0.3368
     27 H          68.1951   93.5142   10.6742 H       1  UNL1        0.1672
@<TRIPOS>BOND
     1    17    18    1
     2    18    19    2
     3    18    20    2
     4    18    16    1
     5    16    21    1
     6    21    22    1
     7    22    23   ar
     8    23    24   ar
     9    24    25   ar
    10    25    26   ar
    11    16     1    1
    12     1     2   ar
    13     2     3   ar
    14     3     4   ar
    15     4     7    1
    16     7     8   ar
    17     8     9   ar
    18     9    10   ar
    19    10    11   ar
    20    11    12   ar
    21    12    13   ar
    22    13    14   ar
    23    14    15   ar
    24     4     5   ar
    25     5     6   ar
    26    26    22   ar
    27     6     1   ar
    28    15     7   ar
    29    14     9   ar
    30    26    27    1
@<TRIPOS>MOLECULE
*****
 27 30 0 0 0
SMALL
GASTEIGER

@<TRIPOS>ATOM
      1 C          64.0229   89.4062   13.5002 C.ar    1  UNL1        0.0689
      2 C          63.2683   88.8572   12.3258 C.ar    1  UNL1        0.0162
      3 C          63.0007   87.3845   12.2282 C.ar    1  UNL1        0.0033
      4 C          63.4877   86.4608   13.3049 C.ar    1  UNL1        0.0239
      5 C          64.2424   87.0097   14.4793 C.ar    1  UNL1        0.0033
      6 C          64.5100   88.4824   14.5769 C.ar    1  UNL1        0.0162
      7 C          63.2201   84.9881   13.2073 C.ar    1  UNL1        0.1107
      8 N          63.5144   84.1150   12.0237 N.ar    1  UNL1       -0.2383
      9 C          63.0874   82.7172   12.3610 C.ar    1  UNL1        0.0878
     10 C          63.1348   81.4372   11.5804 C.ar    1  UNL1        0.0196
     11 C          62.6239   80.1665   12.1919 C.ar    1  UNL1        0.0016
     12 C          62.0656   80.1756   13.5842 C.ar    1  UNL1        0.0006
     13 C          62.0183   81.4556   14.3648 C.ar    1  UNL1        0.0080
     14 C          62.5291   82.7263   13.7532 C.ar    1  UNL1        0.0485
     15 S          62.6112   84.1298   14.2763 S.2     1  UNL1       -0.0665
     16 N          64.2905   90.8789   13.5978 N.pl3   1  UNL1       -0.1883
     17 C          65.5398   92.0154   16.0773 C.3     1  UNL1        0.1999
     18 S          64.9151   91.4471   14.8375 S.O2    1  UNL1        0.0591
     19 O          66.2761   91.2742   14.2311 O.2     1  UNL1       -0.1542
     20 O          63.5542   91.6200   15.4439 O.2     1  UNL1       -0.1542
     21 C          63.9336   91.7833   12.4557 C.3     1  UNL1        0.1602
     22 C          64.9994   92.5935   11.7791 C.ar    1  UNL1        0.0763
     23 C          65.5409   92.3616   10.3997 C.ar    1  UNL1        0.1149
     24 N          66.5870   93.4026   10.1312 N.ar    1  UNL1       -0.2228
     25 C          66.6920   94.2779   11.3448 C.ar    1  UNL1        0.1748
     26 N          65.7108   93.7779   12.3633 N.ar    1  UNL1       -0.3368
     27 H          65.5602   94.1600   13.2581 H       1  UNL1        0.1672
@<TRIPOS>BOND
     1    17    18    1
     2    18    19    2
     3    18    20    2
     4    18    16    1
     5    16    21    1
     6    21    22    1
     7    22    23   ar
     8    23    24   ar
     9    24    25   ar
    10    25    26   ar
    11    16     1    1
    12     1     2   ar
    13     2     3   ar
    14     3     4   ar
    15     4     7    1
    16     7     8   ar
    17     8     9   ar
    18     9    10   ar
    19    10    11   ar
    20    11    12   ar
    21    12    13   ar
    22    13    14   ar
    23    14    15   ar
    24     4     5   ar
    25     5     6   ar
    26    26    22   ar
    27     6     1   ar
    28    15     7   ar
    29    14     9   ar
    30    26    27    1
@<TRIPOS>MOLECULE
*****
 27 30 0 0 0
SMALL
GASTEIGER

@<TRIPOS>ATOM
      1 C          64.2237   89.3053   13.6282 C.ar    1  UNL1        0.0689
      2 C          64.6539   88.3607   14.7110 C.ar    1  UNL1        0.0162
      3 C          64.3279   86.9003   14.6055 C.ar    1  UNL1        0.0033
      4 C          63.5718   86.3846   13.4171 C.ar    1  UNL1        0.0239
      5 C          63.1416   87.3292   12.3343 C.ar    1  UNL1        0.0033
      6 C          63.4676   88.7896   12.4398 C.ar    1  UNL1        0.0162
      7 C          63.2458   84.9243   13.3116 C.ar    1  UNL1        0.1107
      8 N          63.5823   84.0269   12.1577 N.ar    1  UNL1       -0.2383
      9 C          63.0706   82.6529   12.4744 C.ar    1  UNL1        0.0878
     10 C          63.1147   81.3641   11.7082 C.ar    1  UNL1        0.0196
     11 C          62.5060   80.1236   12.2916 C.ar    1  UNL1        0.0016
     12 C          61.8531   80.1718   13.6412 C.ar    1  UNL1        0.0006
     13 C          61.8090   81.4605   14.4074 C.ar    1  UNL1        0.0080
     14 C          62.4177   82.7011   13.8240 C.ar    1  UNL1        0.0485
     15 S          62.5260   84.1049   14.3414 S.2     1  UNL1       -0.0665
     16 N          64.5497   90.7656   13.7337 N.pl3   1  UNL1       -0.1883
     17 C          64.5198   92.4904   11.2793 C.3     1  UNL1        0.1999
     18 S          64.5348   91.6280   12.5065 S.O2    1  UNL1        0.0591
     19 O          63.0387   91.7064   12.5798 O.2     1  UNL1       -0.1542
     20 O          66.0309   91.5497   12.4333 O.2     1  UNL1       -0.1542
     21 C          64.8906   91.3636   15.0664 C.3     1  UNL1        0.1602
     22 C          66.2651   91.9110   15.3134 C.ar    1  UNL1        0.0763
     23 C          66.5958   93.1353   16.1144 C.ar    1  UNL1        0.1149
     24 N          68.0854   93.3112   16.0988 N.ar    1  UNL1       -0.2228
     25 C          68.6754   92.1956   15.2880 C.ar    1  UNL1        0.1748
     26 N          67.5504   91.3302   14.8025 N.ar    1  UNL1       -0.3368
     27 H          67.6399   90.5228   14.2463 H       1  UNL1        0.1672
@<TRIPOS>BOND
     1    17    18    1
     2    18    19    2
     3    18    20    2
     4    18    16    1
     5    16    21    1
     6    21    22    1
     7    22    23   ar
     8    23    24   ar
     9    24    25   ar
    10    25    26   ar
    11    16     1    1
    12     1     2   ar
    13     2     3   ar
    14     3     4   ar
    15     4     7    1
    16     7     8   ar
    17     8     9   ar
    18     9    10   ar
    19    10    11   ar
    20    11    12   ar
    21    12    13   ar
    22    13    14   ar
    23    14    15   ar
    24     4     5   ar
    25     5     6   ar
    26    26    22   ar
    27     6     1   ar
    28    15     7   ar
    29    14     9   ar
    30    26    27    1
@<TRIPOS>MOLECULE
*****
 27 30 0 0 0
SMALL
GASTEIGER

@<TRIPOS>ATOM
      1 C          61.9775   90.2730   11.4887 C.ar    1  UNL1        0.0689
      2 C          62.9563   91.0981   10.7070 C.ar    1  UNL1        0.0162
      3 C          64.1952   91.6213   11.3712 C.ar    1  UNL1        0.0033
      4 C          64.4555   91.3193   12.8173 C.ar    1  UNL1        0.0239
      5 C          63.4767   90.4942   13.5990 C.ar    1  UNL1        0.0033
      6 C          62.2377   89.9711   12.9348 C.ar    1  UNL1        0.0162
      7 C          65.6944   91.8424   13.4815 C.ar    1  UNL1        0.1107
      8 N          65.7395   92.7221   14.6957 N.ar    1  UNL1       -0.2383
      9 C          67.1788   93.0011   15.0128 C.ar    1  UNL1        0.0878
     10 C          67.8295   93.8077   16.0972 C.ar    1  UNL1        0.0196
     11 C          69.3247   93.9072   16.1634 C.ar    1  UNL1        0.0016
     12 C          70.1692   93.1999   15.1452 C.ar    1  UNL1        0.0006
     13 C          69.5185   92.3933   14.0608 C.ar    1  UNL1        0.0080
     14 C          68.0233   92.2939   13.9947 C.ar    1  UNL1        0.0485
     15 S          67.1059   91.5778   13.0483 S.2     1  UNL1       -0.0665
     16 N          60.7385   89.7499   10.8245 N.pl3   1  UNL1       -0.1883
     17 C          58.3768   88.9340   12.4848 C.3     1  UNL1        0.1999
     18 S          59.5577   89.3420   11.6546 S.O2    1  UNL1        0.0591
     19 O          59.0388   90.7485   11.6077 O.2     1  UNL1       -0.1542
     20 O          60.0766   87.9354   11.7016 O.2     1  UNL1       -0.1542
     21 C          60.6804   89.6347    9.3301 C.3     1  UNL1        0.1602
     22 C          60.3049   88.3299    8.6925 C.ar    1  UNL1        0.0763
     23 C          59.1578   88.1058    7.7523 C.ar    1  UNL1        0.1149
     24 N          59.1546   86.6575    7.3618 N.ar    1  UNL1       -0.2228
     25 C          60.2998   85.9865    8.0607 C.ar    1  UNL1        0.1748
     26 N          61.0108   87.0201    8.8831 N.ar    1  UNL1       -0.3368
     27 H          61.8018   86.8658    9.4486 H       1  UNL1        0.1672
@<TRIPOS>BOND
     1    17    18    1
     2    18    19    2
     3    18    20    2
     4    18    16    1
     5    16    21    1
     6    21    22    1
     7    22    23   ar
     8    23    24   ar
     9    24    25   ar
    10    25    26   ar
    11    16     1    1
    12     1     2   ar
    13     2     3   ar
    14     3     4   ar
    15     4     7    1
    16     7     8   ar
    17     8     9   ar
    18     9    10   ar
    19    10    11   ar
    20    11    12   ar
    21    12    13   ar
    22    13    14   ar
    23    14    15   ar
    24     4     5   ar
    25     5     6   ar
    26    26    22   ar
    27     6     1   ar
    28    15     7   ar
    29    14     9   ar
    30    26    27    1
@<TRIPOS>MOLECULE
*****
 27 30 0 0 0
SMALL
GASTEIGER

@<TRIPOS>ATOM
      1 C          61.8978   88.8413   10.6181 C.ar    1  UNL1        0.0689
      2 C          62.4370   90.1387   10.0929 C.ar    1  UNL1        0.0162
      3 C          63.4194   90.9272   10.9073 C.ar    1  UNL1        0.0033
      4 C          63.8625   90.4182   12.2469 C.ar    1  UNL1        0.0239
      5 C          63.3233   89.1208   12.7721 C.ar    1  UNL1        0.0033
      6 C          62.3409   88.3323   11.9577 C.ar    1  UNL1        0.0162
      7 C          64.8449   91.2067   13.0613 C.ar    1  UNL1        0.1107
      8 N          65.2541   92.6286   12.8149 N.ar    1  UNL1       -0.2383
      9 C          66.2527   93.0124   13.8664 C.ar    1  UNL1        0.0878
     10 C          66.9995   94.2876   14.1236 C.ar    1  UNL1        0.0196
     11 C          67.9542   94.3780   15.2769 C.ar    1  UNL1        0.0016
     12 C          68.1621   93.1933   16.1731 C.ar    1  UNL1        0.0006
     13 C          67.4154   91.9181   15.9160 C.ar    1  UNL1        0.0080
     14 C          66.4606   91.8277   14.7626 C.ar    1  UNL1        0.0485
     15 S          65.5906   90.7117   14.2650 S.2     1  UNL1       -0.0665
     16 N          60.9154   88.0528    9.8037 N.pl3   1  UNL1       -0.1883
     17 C          59.4574   89.3620    7.5321 C.3     1  UNL1        0.1999
     18 S          60.1864   88.7074    8.6679 S.O2    1  UNL1        0.0591
     19 O          59.8016   89.8429    9.5693 O.2     1  UNL1       -0.1542
     20 O          60.5712   87.5718    7.7665 O.2     1  UNL1       -0.1542
     21 C          60.6620   86.6097   10.1251 C.3     1  UNL1        0.1602
     22 C          61.7957   85.6277   10.1103 C.ar    1  UNL1        0.0763
     23 C          62.2734   84.8148   11.2769 C.ar    1  UNL1        0.1149
     24 N          63.4238   83.9708   10.8139 N.ar    1  UNL1       -0.2228
     25 C          63.6572   84.2623    9.3611 C.ar    1  UNL1        0.1748
     26 N          62.6510   85.2863    8.9262 N.ar    1  UNL1       -0.3368
     27 H          62.5668   85.6673    8.0223 H       1  UNL1        0.1672
@<TRIPOS>BOND
     1    17    18    1
     2    18    19    2
     3    18    20    2
     4    18    16    1
     5    16    21    1
     6    21    22    1
     7    22    23   ar
     8    23    24   ar
     9    24    25   ar
    10    25    26   ar
    11    16     1    1
    12     1     2   ar
    13     2     3   ar
    14     3     4   ar
    15     4     7    1
    16     7     8   ar
    17     8     9   ar
    18     9    10   ar
    19    10    11   ar
    20    11    12   ar
    21    12    13   ar
    22    13    14   ar
    23    14    15   ar
    24     4     5   ar
    25     5     6   ar
    26    26    22   ar
    27     6     1   ar
    28    15     7   ar
    29    14     9   ar
    30    26    27    1
@<TRIPOS>MOLECULE
*****
 27 30 0 0 0
SMALL
GASTEIGER

@<TRIPOS>ATOM
      1 C          44.6003   75.7888   18.5329 C.ar    1  UNL1        0.0689
      2 C          44.6705   76.0651   17.0603 C.ar    1  UNL1        0.0162
      3 C          44.7594   74.9271   16.0870 C.ar    1  UNL1        0.0033
      4 C          44.7781   73.5129   16.5864 C.ar    1  UNL1        0.0239
      5 C          44.7079   73.2365   18.0590 C.ar    1  UNL1        0.0033
      6 C          44.6191   74.3745   19.0323 C.ar    1  UNL1        0.0162
      7 C          44.8670   72.3749   15.6132 C.ar    1  UNL1        0.1107
      8 N          46.0195   71.4258   15.4693 N.ar    1  UNL1       -0.2383
      9 C          45.6838   70.4506   14.3801 C.ar    1  UNL1        0.0878
     10 C          46.4408   69.2919   13.8020 C.ar    1  UNL1        0.0196
     11 C          45.8377   68.4796   12.6945 C.ar    1  UNL1        0.0016
     12 C          44.4777   68.8261   12.1652 C.ar    1  UNL1        0.0006
     13 C          43.7207   69.9848   12.7433 C.ar    1  UNL1        0.0080
     14 C          44.3237   70.7970   13.8508 C.ar    1  UNL1        0.0485
     15 S          43.8189   71.9864   14.6129 S.2     1  UNL1       -0.0665
     16 N          44.5115   76.9267   19.5061 N.pl3   1  UNL1       -0.1883
     17 C          45.5715   76.6026   22.2938 C.3     1  UNL1        0.1999
     18 S          45.0415   76.7646   20.8999 S.O2    1  UNL1        0.0591
     19 O          46.4444   76.7953   20.3700 O.2     1  UNL1       -0.1542
     20 O          43.6385   76.7340   21.4298 O.2     1  UNL1       -0.1542
     21 C          43.8926   78.2267   19.0855 C.3     1  UNL1        0.1602
     22 C          44.7287   79.4705   19.0249 C.ar    1  UNL1        0.0763
     23 C          44.2410   80.8723   19.2424 C.ar    1  UNL1        0.1149
     24 N          45.4103   81.7991   19.0881 N.ar    1  UNL1       -0.2228
     25 C          46.6207   80.9702   18.7751 C.ar    1  UNL1        0.1748
     26 N          46.1995   79.5310   18.7361 N.ar    1  UNL1       -0.3368
     27 H          46.7854   78.7614   18.5530 H       1  UNL1        0.1672
@<TRIPOS>BOND
     1    17    18    1
     2    18    19    2
     3    18    20    2
     4    18    16    1
     5    16    21    1
     6    21    22    1
     7    22    23   ar
     8    23    24   ar
     9    24    25   ar
    10    25    26   ar
    11    16     1    1
    12     1     2   ar
    13     2     3   ar
    14     3     4   ar
    15     4     7    1
    16     7     8   ar
    17     8     9   ar
    18     9    10   ar
    19    10    11   ar
    20    11    12   ar
    21    12    13   ar
    22    13    14   ar
    23    14    15   ar
    24     4     5   ar
    25     5     6   ar
    26    26    22   ar
    27     6     1   ar
    28    15     7   ar
    29    14     9   ar
    30    26    27    1
@<TRIPOS>MOLECULE
*****
 27 30 0 0 0
SMALL
GASTEIGER

@<TRIPOS>ATOM
      1 C          62.2596   88.0008   11.2017 C.ar    1  UNL1        0.0689
      2 C          62.4682   89.3836   10.6593 C.ar    1  UNL1        0.0162
      3 C          63.3798   90.3389   11.3710 C.ar    1  UNL1        0.0033
      4 C          64.0828   89.9113   12.6251 C.ar    1  UNL1        0.0239
      5 C          63.8743   88.5284   13.1675 C.ar    1  UNL1        0.0033
      6 C          62.9627   87.5732   12.4558 C.ar    1  UNL1        0.0162
      7 C          64.9944   90.8665   13.3368 C.ar    1  UNL1        0.1107
      8 N          65.7748   90.5766   14.5846 N.ar    1  UNL1       -0.2383
      9 C          66.5484   91.8102   14.9447 C.ar    1  UNL1        0.0878
     10 C          67.4890   92.1113   16.0737 C.ar    1  UNL1        0.0196
     11 C          68.1273   93.4647   16.1774 C.ar    1  UNL1        0.0016
     12 C          67.8250   94.5171   15.1521 C.ar    1  UNL1        0.0006
     13 C          66.8845   94.2160   14.0232 C.ar    1  UNL1        0.0080
     14 C          66.2461   92.8626   13.9194 C.ar    1  UNL1        0.0485
     15 S          65.2857   92.2793   12.9257 S.2     1  UNL1       -0.0665
     16 N          61.3480   87.0456   10.4900 N.pl3   1  UNL1       -0.1883
     17 C          59.7839   87.9634    8.1002 C.3     1  UNL1        0.1999
     18 S          60.5660   87.5045    9.2951 S.O2    1  UNL1        0.0591
     19 O          59.6001   88.2117   10.1988 O.2     1  UNL1       -0.1542
     20 O          61.5318   86.7972    8.3913 O.2     1  UNL1       -0.1542
     21 C          61.2185   85.6315   10.9731 C.3     1  UNL1        0.1602
     22 C          62.3774   84.6874   10.8491 C.ar    1  UNL1        0.0763
     23 C          62.9366   83.8290   11.9447 C.ar    1  UNL1        0.1149
     24 N          64.0855   83.0469   11.3804 N.ar    1  UNL1       -0.2228
     25 C          64.2364   83.4220    9.9359 C.ar    1  UNL1        0.1748
     26 N          63.1808   84.4359    9.6075 N.ar    1  UNL1       -0.3368
     27 H          63.0399   84.8615    8.7310 H       1  UNL1        0.1672
@<TRIPOS>BOND
     1    17    18    1
     2    18    19    2
     3    18    20    2
     4    18    16    1
     5    16    21    1
     6    21    22    1
     7    22    23   ar
     8    23    24   ar
     9    24    25   ar
    10    25    26   ar
    11    16     1    1
    12     1     2   ar
    13     2     3   ar
    14     3     4   ar
    15     4     7    1
    16     7     8   ar
    17     8     9   ar
    18     9    10   ar
    19    10    11   ar
    20    11    12   ar
    21    12    13   ar
    22    13    14   ar
    23    14    15   ar
    24     4     5   ar
    25     5     6   ar
    26    26    22   ar
    27     6     1   ar
    28    15     7   ar
    29    14     9   ar
    30    26    27    1
