@<TRIPOS>MOLECULE
*****
 38 42 0 0 0
SMALL
GASTEIGER

@<TRIPOS>ATOM
      1 C          60.3869   93.1891    1.9733 C.ar    1  UNL1        0.1110
      2 N          58.9713   93.0346    2.4446 N.ar    1  UNL1       -0.2412
      3 C          58.9820   92.1653    3.6671 C.ar    1  UNL1        0.0875
      4 C          57.8805   91.6729    4.5582 C.ar    1  UNL1        0.0196
      5 C          58.2012   90.7978    5.7334 C.ar    1  UNL1        0.0016
      6 C          59.6234   90.4150    6.0175 C.ar    1  UNL1        0.0006
      7 C          60.7250   90.9075    5.1265 C.ar    1  UNL1        0.0080
      8 C          60.4042   91.7826    3.9512 C.ar    1  UNL1        0.0482
      9 S          61.2725   92.4153    2.9044 S.2     1  UNL1       -0.0693
     10 C          59.9441   89.5398    7.1929 C.ar    1  UNL1        0.0000
     11 C          59.4242   88.1338    7.2449 C.ar    1  UNL1        0.0001
     12 C          59.7449   87.2586    8.4202 C.ar    1  UNL1        0.0045
     13 C          60.5855   87.7895    9.5434 C.ar    1  UNL1        0.0536
     14 C          61.1054   89.1956    9.4913 C.ar    1  UNL1        0.0045
     15 C          60.7847   90.0708    8.3160 C.ar    1  UNL1        0.0001
     16 C          60.9062   86.9144   10.7187 C.2     1  UNL1        0.2492
     17 O          60.2580   87.1742   12.0462 O.2     1  UNL1       -0.2699
     18 N          61.8750   85.7795   10.5664 N.am    1  UNL1       -0.2709
     19 C          62.5231   85.5197    9.2388 C.3     1  UNL1        0.1258
     20 C          63.4920   84.3847    9.0866 C.3     1  UNL1        0.1637
     21 O          63.8127   83.5096   10.2618 O.3     1  UNL1       -0.3501
     22 C          63.1646   83.7694   11.5894 C.3     1  UNL1        0.1637
     23 C          62.1957   84.9043   11.7417 C.3     1  UNL1        0.1258
     24 C          60.8377   93.9787    0.7802 C.3     1  UNL1        0.2129
     25 C          59.8586   94.3294   -0.3006 C.2     1  UNL1        0.2430
     26 O          60.2638   94.2287   -1.7413 O.2     1  UNL1       -0.2735
     27 N          58.4741   94.7810    0.0593 N.am    1  UNL1       -0.2955
     28 H          58.2081   94.8471    1.0048 H       1  UNL1        0.1499
     29 C          57.4950   95.1317   -1.0217 C.3     1  UNL1        0.1757
     30 C          56.7394   94.0468   -1.7301 C.2     1  UNL1        0.2425
     31 O          55.2934   93.8080   -1.4103 O.2     1  UNL1       -0.2733
     32 N          57.4297   93.2005   -2.7583 N.am    1  UNL1       -0.3046
     33 H          58.3788   93.3572   -2.9682 H       1  UNL1        0.1494
     34 C          56.6742   92.1155   -3.4668 C.3     1  UNL1        0.0717
     35 C          56.0881   91.5504   -4.7265 C.3     1  UNL1        0.0213
     36 C          55.9516   90.8015   -3.4340 C.3     1  UNL1        0.0213
     37 N          63.6977   94.8563    0.5558 N.1     1  UNL1       -0.1950
     38 C          62.2676   94.4175    0.6680 C.1     1  UNL1        0.0881
@<TRIPOS>BOND
     1    37    38    3
     2    38    24    1
     3    24    25    1
     4    25    26    2
     5    25    27   am
     6    27    29    1
     7    29    30    1
     8    30    31    2
     9    30    32   am
    10    32    34    1
    11    34    35    1
    12    35    36    1
    13    24     1    1
    14     1     2   ar
    15     2     3   ar
    16     3     4   ar
    17     4     5   ar
    18     5     6   ar
    19     6    10    1
    20    10    11   ar
    21    11    12   ar
    22    12    13   ar
    23    13    16    1
    24    16    17    2
    25    16    18   am
    26    18    19    1
    27    19    20    1
    28    20    21    1
    29    21    22    1
    30    22    23    1
    31    13    14   ar
    32    14    15   ar
    33     6     7   ar
    34     7     8   ar
    35     8     9   ar
    36    36    34    1
    37     9     1   ar
    38     8     3   ar
    39    15    10   ar
    40    23    18    1
    41    27    28    1
    42    32    33    1
@<TRIPOS>MOLECULE
*****
 38 42 0 0 0
SMALL
GASTEIGER

@<TRIPOS>ATOM
      1 C          59.8367   92.8881    2.9842 C.ar    1  UNL1        0.1110
      2 N          58.4746   92.4743    3.4571 N.ar    1  UNL1       -0.2412
      3 C          58.6513   91.5129    4.5948 C.ar    1  UNL1        0.0875
      4 C          57.6626   90.7783    5.4509 C.ar    1  UNL1        0.0196
      5 C          58.1450   89.8634    6.5372 C.ar    1  UNL1        0.0016
      6 C          59.6162   89.6830    6.7674 C.ar    1  UNL1        0.0006
      7 C          60.6050   90.4175    5.9114 C.ar    1  UNL1        0.0080
      8 C          60.1225   91.3324    4.8251 C.ar    1  UNL1        0.0482
      9 S          60.8551   92.1824    3.8296 S.2     1  UNL1       -0.0693
     10 C          60.0987   88.7680    7.8538 C.ar    1  UNL1        0.0000
     11 C          60.8107   89.3315    9.0477 C.ar    1  UNL1        0.0001
     12 C          61.2932   88.4165   10.1341 C.ar    1  UNL1        0.0045
     13 C          61.0636   86.9381   10.0264 C.ar    1  UNL1        0.0536
     14 C          60.3516   86.3746    8.8324 C.ar    1  UNL1        0.0045
     15 C          59.8691   87.2896    7.7461 C.ar    1  UNL1        0.0001
     16 C          61.5460   86.0231   11.1127 C.2     1  UNL1        0.2492
     17 O          61.0333   86.1857   12.5130 O.2     1  UNL1       -0.2699
     18 N          62.5411   84.9456   10.7987 N.am    1  UNL1       -0.2709
     19 C          63.0538   84.7830    9.3985 C.3     1  UNL1        0.1258
     20 C          64.0489   83.7054    9.0845 C.3     1  UNL1        0.1637
     21 O          64.5314   82.7904   10.1708 O.3     1  UNL1       -0.3501
     22 C          64.0187   82.9530   11.5711 C.3     1  UNL1        0.1637
     23 C          63.0236   84.0305   11.8850 C.3     1  UNL1        0.1258
     24 C          60.1289   93.8405    1.8628 C.3     1  UNL1        0.2129
     25 C          60.4627   93.3132    0.4988 C.2     1  UNL1        0.2430
     26 O          61.8680   92.8977    0.1784 O.2     1  UNL1       -0.2735
     27 N          59.3912   93.2013   -0.5450 N.am    1  UNL1       -0.2955
     28 H          58.4688   93.4739   -0.3348 H       1  UNL1        0.1499
     29 C          59.7250   92.6739   -1.9090 C.3     1  UNL1        0.1757
     30 C          58.7767   92.8927   -3.0504 C.2     1  UNL1        0.2425
     31 O          58.9405   94.0870   -3.9432 O.2     1  UNL1       -0.2733
     32 N          57.6646   91.9174   -3.2990 N.am    1  UNL1       -0.3046
     33 H          57.5571   91.1336   -2.7131 H       1  UNL1        0.1494
     34 C          56.7163   92.1362   -4.4405 C.3     1  UNL1        0.0717
     35 C          55.9446   93.0672   -5.3280 C.3     1  UNL1        0.0213
     36 C          55.8454   91.5841   -5.5299 C.3     1  UNL1        0.0213
     37 N          60.0460   96.7999    2.3478 N.1     1  UNL1       -0.1950
     38 C          60.0875   95.3201    2.1053 C.1     1  UNL1        0.0881
@<TRIPOS>BOND
     1    37    38    3
     2    38    24    1
     3    24    25    1
     4    25    26    2
     5    25    27   am
     6    27    29    1
     7    29    30    1
     8    30    31    2
     9    30    32   am
    10    32    34    1
    11    34    35    1
    12    35    36    1
    13    24     1    1
    14     1     2   ar
    15     2     3   ar
    16     3     4   ar
    17     4     5   ar
    18     5     6   ar
    19     6    10    1
    20    10    11   ar
    21    11    12   ar
    22    12    13   ar
    23    13    16    1
    24    16    17    2
    25    16    18   am
    26    18    19    1
    27    19    20    1
    28    20    21    1
    29    21    22    1
    30    22    23    1
    31    13    14   ar
    32    14    15   ar
    33     6     7   ar
    34     7     8   ar
    35     8     9   ar
    36    36    34    1
    37     9     1   ar
    38     8     3   ar
    39    15    10   ar
    40    23    18    1
    41    27    28    1
    42    32    33    1
@<TRIPOS>MOLECULE
*****
 38 42 0 0 0
SMALL
GASTEIGER

@<TRIPOS>ATOM
      1 C          59.7734   90.9312    4.8820 C.ar    1  UNL1        0.1110
      2 N          61.2231   90.5638    4.9976 N.ar    1  UNL1       -0.2412
      3 C          61.9656   91.2523    3.8910 C.ar    1  UNL1        0.0875
      4 C          63.4158   91.2596    3.5081 C.ar    1  UNL1        0.0196
      5 C          63.8753   92.0600    2.3256 C.ar    1  UNL1        0.0016
      6 C          62.8844   92.8530    1.5260 C.ar    1  UNL1        0.0006
      7 C          61.4342   92.8456    1.9088 C.ar    1  UNL1        0.0080
      8 C          60.9747   92.0453    3.0913 C.ar    1  UNL1        0.0482
      9 S          59.6199   91.8468    3.7038 S.2     1  UNL1       -0.0693
     10 C          63.3439   93.6533    0.3434 C.ar    1  UNL1        0.0000
     11 C          64.1931   94.8728    0.5474 C.ar    1  UNL1        0.0001
     12 C          64.6525   95.6732   -0.6352 C.ar    1  UNL1        0.0045
     13 C          64.2628   95.2540   -2.0217 C.ar    1  UNL1        0.0536
     14 C          63.4136   94.0344   -2.2256 C.ar    1  UNL1        0.0045
     15 C          62.9542   93.2341   -1.0431 C.ar    1  UNL1        0.0001
     16 C          64.7223   96.0542   -3.2042 C.2     1  UNL1        0.2492
     17 O          65.9874   96.8558   -3.1216 O.2     1  UNL1       -0.2699
     18 N          63.9165   96.0530   -4.4694 N.am    1  UNL1       -0.2709
     19 C          62.6513   95.2514   -4.5521 C.3     1  UNL1        0.1258
     20 C          61.8456   95.2502   -5.8173 C.3     1  UNL1        0.1637
     21 O          62.3050   96.0505   -6.9999 O.3     1  UNL1       -0.3501
     22 C          63.5702   96.8520   -6.9172 C.3     1  UNL1        0.1637
     23 C          64.3759   96.8533   -5.6520 C.3     1  UNL1        0.1258
     24 C          58.6709   90.4649    5.7858 C.3     1  UNL1        0.2129
     25 C          58.9874   89.6037    6.9724 C.2     1  UNL1        0.2430
     26 O          58.4902   88.1895    7.0269 O.2     1  UNL1       -0.2735
     27 N          59.8013   90.1567    8.1047 N.am    1  UNL1       -0.2955
     28 H          60.1276   91.0849    8.0689 H       1  UNL1        0.1499
     29 C          60.1178   89.2955    9.2914 C.3     1  UNL1        0.1757
     30 C          61.1844   88.2454    9.1927 C.2     1  UNL1        0.2425
     31 O          62.5341   88.4878    9.8008 O.2     1  UNL1       -0.2733
     32 N          60.9013   86.9529    8.4861 N.am    1  UNL1       -0.3046
     33 H          60.0155   86.7938    8.0870 H       1  UNL1        0.1494
     34 C          61.9679   85.9028    8.3875 C.3     1  UNL1        0.0717
     35 C          62.7224   84.8895    7.5789 C.3     1  UNL1        0.0213
     36 C          63.0607   85.0974    9.0253 C.3     1  UNL1        0.0213
     37 N          55.8325   91.2545    5.2201 N.1     1  UNL1       -0.1950
     38 C          57.2517   90.8597    5.5030 C.1     1  UNL1        0.0881
@<TRIPOS>BOND
     1    37    38    3
     2    38    24    1
     3    24    25    1
     4    25    26    2
     5    25    27   am
     6    27    29    1
     7    29    30    1
     8    30    31    2
     9    30    32   am
    10    32    34    1
    11    34    35    1
    12    35    36    1
    13    24     1    1
    14     1     2   ar
    15     2     3   ar
    16     3     4   ar
    17     4     5   ar
    18     5     6   ar
    19     6    10    1
    20    10    11   ar
    21    11    12   ar
    22    12    13   ar
    23    13    16    1
    24    16    17    2
    25    16    18   am
    26    18    19    1
    27    19    20    1
    28    20    21    1
    29    21    22    1
    30    22    23    1
    31    13    14   ar
    32    14    15   ar
    33     6     7   ar
    34     7     8   ar
    35     8     9   ar
    36    36    34    1
    37     9     1   ar
    38     8     3   ar
    39    15    10   ar
    40    23    18    1
    41    27    28    1
    42    32    33    1
@<TRIPOS>MOLECULE
*****
 38 42 0 0 0
SMALL
GASTEIGER

@<TRIPOS>ATOM
      1 C          59.1682   90.3340    6.4639 C.ar    1  UNL1        0.1110
      2 N          59.3476   90.8839    7.8479 N.ar    1  UNL1       -0.2412
      3 C          60.0003   89.8252    8.6864 C.ar    1  UNL1        0.0875
      4 C          60.4196   89.8021   10.1264 C.ar    1  UNL1        0.0196
      5 C          61.0630   88.5748   10.7006 C.ar    1  UNL1        0.0016
      6 C          61.2871   87.3706    9.8348 C.ar    1  UNL1        0.0006
      7 C          60.8678   87.3936    8.3948 C.ar    1  UNL1        0.0080
      8 C          60.2244   88.6209    7.8206 C.ar    1  UNL1        0.0482
      9 S          59.7101   88.9354    6.4470 S.2     1  UNL1       -0.0693
     10 C          61.9306   86.1432   10.4090 C.ar    1  UNL1        0.0000
     11 C          61.9538   85.9336   11.8941 C.ar    1  UNL1        0.0001
     12 C          62.5972   84.7063   12.4684 C.ar    1  UNL1        0.0045
     13 C          63.2174   83.6886   11.5575 C.ar    1  UNL1        0.0536
     14 C          63.1942   83.8983   10.0723 C.ar    1  UNL1        0.0045
     15 C          62.5508   85.1256    9.4982 C.ar    1  UNL1        0.0001
     16 C          63.8608   82.4613   12.1317 C.2     1  UNL1        0.2492
     17 O          65.3255   82.2145   11.9222 O.2     1  UNL1       -0.2699
     18 N          63.0396   81.4809   12.9154 N.am    1  UNL1       -0.2709
     19 C          61.5750   81.7277   13.1249 C.3     1  UNL1        0.1258
     20 C          60.7537   80.7472   13.9087 C.3     1  UNL1        0.1637
     21 O          61.3971   79.5199   14.4829 O.3     1  UNL1       -0.3501
     22 C          62.8618   79.2731   14.2734 C.3     1  UNL1        0.1637
     23 C          63.6830   80.2535   13.4897 C.3     1  UNL1        0.1258
     24 C          58.5546   91.0559    5.3010 C.3     1  UNL1        0.2129
     25 C          59.4332   91.6987    4.2691 C.2     1  UNL1        0.2430
     26 O          60.9244   91.6684    4.4295 O.2     1  UNL1       -0.2735
     27 N          58.8207   92.3720    3.0768 N.am    1  UNL1       -0.2955
     28 H          57.8421   92.3920    2.9715 H       1  UNL1        0.1499
     29 C          59.6994   93.0149    2.0449 C.3     1  UNL1        0.1757
     30 C          59.5010   92.7028    0.5913 C.2     1  UNL1        0.2425
     31 O          60.5811   92.0037   -0.1800 O.2     1  UNL1       -0.2733
     32 N          58.2225   93.0896   -0.0912 N.am    1  UNL1       -0.3046
     33 H          57.5136   93.5483    0.4150 H       1  UNL1        0.1494
     34 C          58.0240   92.7774   -1.5449 C.3     1  UNL1        0.0717
     35 C          58.5200   92.8106   -2.9601 C.3     1  UNL1        0.0213
     36 C          57.1844   92.2036   -2.6474 C.3     1  UNL1        0.0213
     37 N          55.5703   91.2140    5.0389 N.1     1  UNL1       -0.1950
     38 C          57.0625   91.1349    5.1699 C.1     1  UNL1        0.0881
@<TRIPOS>BOND
     1    37    38    3
     2    38    24    1
     3    24    25    1
     4    25    26    2
     5    25    27   am
     6    27    29    1
     7    29    30    1
     8    30    31    2
     9    30    32   am
    10    32    34    1
    11    34    35    1
    12    35    36    1
    13    24     1    1
    14     1     2   ar
    15     2     3   ar
    16     3     4   ar
    17     4     5   ar
    18     5     6   ar
    19     6    10    1
    20    10    11   ar
    21    11    12   ar
    22    12    13   ar
    23    13    16    1
    24    16    17    2
    25    16    18   am
    26    18    19    1
    27    19    20    1
    28    20    21    1
    29    21    22    1
    30    22    23    1
    31    13    14   ar
    32    14    15   ar
    33     6     7   ar
    34     7     8   ar
    35     8     9   ar
    36    36    34    1
    37     9     1   ar
    38     8     3   ar
    39    15    10   ar
    40    23    18    1
    41    27    28    1
    42    32    33    1
