@<TRIPOS>MOLECULE
*****
 26 29 0 0 0
SMALL
GASTEIGER

@<TRIPOS>ATOM
      1 C          61.2181   87.5463    9.6384 C.ar    1  UNL1       -0.0004
      2 C          61.4364   86.1767   10.2097 C.ar    1  UNL1        0.0957
      3 N          62.3052   86.3144   11.4247 N.ar    1  UNL1       -0.2067
      4 C          62.6240   87.7691   11.6042 C.ar    1  UNL1        0.0823
      5 C          63.4392   88.4987   12.6303 C.ar    1  UNL1        0.0189
      6 C          63.5825   89.9898   12.5524 C.ar    1  UNL1        0.0015
      7 C          62.9106   90.7512   11.4485 C.ar    1  UNL1        0.0001
      8 C          62.0954   90.0216   10.4223 C.ar    1  UNL1        0.0012
      9 C          61.9521   88.5305   10.5002 C.ar    1  UNL1        0.0151
     10 S          62.7732   85.1940   12.3055 S.O2    1  UNL1        0.1038
     11 O          61.8268   85.6427   13.3791 O.2     1  UNL1       -0.1461
     12 O          63.7197   84.7453   11.2318 O.2     1  UNL1       -0.1461
     13 C          63.2413   84.0736   13.1862 C.ar    1  UNL1        0.2241
     14 C          64.0503   84.2177   14.4411 C.ar    1  UNL1        0.1761
     15 CL         64.5333   85.5075   15.0355 Cl      1  UNL1       -0.0582
     16 N          64.2916   82.8457   14.9971 N.ar    1  UNL1       -0.2075
     17 C          63.6317   81.8536   14.0859 C.ar    1  UNL1        0.1813
     18 S          63.3730   80.3925   13.8665 S.2     1  UNL1       -0.0479
     19 C          62.5639   80.2484   12.6116 C.ar    1  UNL1        0.0574
     20 C          62.3227   81.6205   12.0556 C.ar    1  UNL1        0.0903
     21 N          62.9826   82.6125   12.9667 N.ar    1  UNL1       -0.2665
     22 C          60.4081   87.8743    8.4193 C.3     1  UNL1        0.0448
     23 N          58.2378   86.5935    7.7868 N.3     1  UNL1       -0.3209
     24 C          59.7207   86.7792    7.6585 C.3     1  UNL1        0.0699
     25 H          57.9418   85.8095    7.2053 H       1  UNL1        0.1189
     26 H          57.7612   87.4421    7.4817 H       1  UNL1        0.1189
@<TRIPOS>BOND
     1    23    24    1
     2    24    22    1
     3    22     1    1
     4     1     2   ar
     5     2     3   ar
     6     3    10    1
     7    10    11    2
     8    10    12    2
     9    10    13    1
    10    13    14   ar
    11    14    15    1
    12    14    16   ar
    13    16    17   ar
    14    17    18   ar
    15    18    19   ar
    16    19    20   ar
    17    20    21   ar
    18     3     4   ar
    19     4     5   ar
    20     5     6   ar
    21     6     7   ar
    22     7     8   ar
    23     8     9   ar
    24     9     1   ar
    25    21    13   ar
    26     9     4   ar
    27    21    17   ar
    28    23    25    1
    29    23    26    1
@<TRIPOS>MOLECULE
*****
 26 29 0 0 0
SMALL
GASTEIGER

@<TRIPOS>ATOM
      1 C          64.2586   89.7350   14.0178 C.ar    1  UNL1       -0.0004
      2 C          64.2341   88.2947   14.4359 C.ar    1  UNL1        0.0957
      3 N          63.5807   87.5052   13.3405 N.ar    1  UNL1       -0.2067
      4 C          63.2015   88.4576   12.2455 C.ar    1  UNL1        0.0823
      5 C          62.5287   88.2481   10.9213 C.ar    1  UNL1        0.0189
      6 C          62.2750   89.4166   10.0158 C.ar    1  UNL1        0.0015
      7 C          62.6939   90.7947   10.4344 C.ar    1  UNL1        0.0001
      8 C          63.3666   91.0043   11.7586 C.ar    1  UNL1        0.0012
      9 C          63.6204   89.8358   12.6641 C.ar    1  UNL1        0.0151
     10 S          63.3476   86.0234   13.3401 S.O2    1  UNL1        0.1038
     11 O          62.2325   86.1991   12.3524 O.2     1  UNL1       -0.1461
     12 O          64.4627   85.8477   14.3278 O.2     1  UNL1       -0.1461
     13 C          63.1145   84.5416   13.3398 C.ar    1  UNL1        0.2241
     14 C          62.5629   83.7357   14.4784 C.ar    1  UNL1        0.1761
     15 CL         62.1477   84.2701   15.8171 Cl      1  UNL1       -0.0582
     16 N          62.4996   82.3017   14.0432 N.ar    1  UNL1       -0.2075
     17 C          63.0119   82.2212   12.6357 C.ar    1  UNL1        0.1813
     18 S          63.2894   81.2853   11.4969 S.2     1  UNL1       -0.0479
     19 C          63.8409   82.0912   10.3584 C.ar    1  UNL1        0.0574
     20 C          63.9043   83.5253   10.7936 C.ar    1  UNL1        0.0903
     21 N          63.3920   83.6056   12.2010 N.ar    1  UNL1       -0.2665
     22 C          64.8223   90.8746   14.8138 C.3     1  UNL1        0.0448
     23 N          64.5863   92.5802   16.7594 N.3     1  UNL1       -0.3209
     24 C          64.1270   91.3349   16.0608 C.3     1  UNL1        0.0699
     25 H          64.0057   92.7422   17.5823 H       1  UNL1        0.1189
     26 H          64.5065   93.3750   16.1252 H       1  UNL1        0.1189
@<TRIPOS>BOND
     1    23    24    1
     2    24    22    1
     3    22     1    1
     4     1     2   ar
     5     2     3   ar
     6     3    10    1
     7    10    11    2
     8    10    12    2
     9    10    13    1
    10    13    14   ar
    11    14    15    1
    12    14    16   ar
    13    16    17   ar
    14    17    18   ar
    15    18    19   ar
    16    19    20   ar
    17    20    21   ar
    18     3     4   ar
    19     4     5   ar
    20     5     6   ar
    21     6     7   ar
    22     7     8   ar
    23     8     9   ar
    24     9     1   ar
    25    21    13   ar
    26     9     4   ar
    27    21    17   ar
    28    23    25    1
    29    23    26    1
@<TRIPOS>MOLECULE
*****
 26 29 0 0 0
SMALL
GASTEIGER

@<TRIPOS>ATOM
      1 C          63.0072   82.6507   12.2994 C.ar    1  UNL1       -0.0004
      2 C          62.3397   83.5105   11.2674 C.ar    1  UNL1        0.0957
      3 N          62.5349   84.9444   11.6621 N.ar    1  UNL1       -0.2067
      4 C          63.3230   84.9708   12.9381 C.ar    1  UNL1        0.0823
      5 C          63.8125   86.1025   13.7922 C.ar    1  UNL1        0.0189
      6 C          64.5939   85.8166   15.0402 C.ar    1  UNL1        0.0015
      7 C          64.8858   84.3990   15.4341 C.ar    1  UNL1        0.0001
      8 C          64.3963   83.2673   14.5800 C.ar    1  UNL1        0.0012
      9 C          63.6149   83.5532   13.3320 C.ar    1  UNL1        0.0151
     10 S          62.0305   86.1417   10.9124 S.O2    1  UNL1        0.1038
     11 O          61.1532   86.5001   12.0750 O.2     1  UNL1       -0.1461
     12 O          62.9079   85.7834    9.7498 O.2     1  UNL1       -0.1461
     13 C          61.5262   87.3391   10.1627 C.ar    1  UNL1        0.2241
     14 C          61.9157   88.7655   10.4148 C.ar    1  UNL1        0.1761
     15 CL         62.8779   89.2450   11.4609 Cl      1  UNL1       -0.0582
     16 N          61.1741   89.6282    9.4372 N.ar    1  UNL1       -0.2075
     17 C          60.3262   88.7350    8.5809 C.ar    1  UNL1        0.1813
     18 S          59.3439   88.7161    7.4475 S.2     1  UNL1       -0.0479
     19 C          58.9544   87.2897    7.1954 C.ar    1  UNL1        0.0574
     20 C          59.6960   86.4270    8.1730 C.ar    1  UNL1        0.0903
     21 N          60.5438   87.3202    9.0293 N.ar    1  UNL1       -0.2665
     22 C          63.0581   81.1516   12.2990 C.3     1  UNL1        0.0448
     23 N          61.1676   81.0468   14.0781 N.3     1  UNL1       -0.3209
     24 C          62.2634   80.3738   13.3059 C.3     1  UNL1        0.0699
     25 H          60.7365   80.3745   14.7127 H       1  UNL1        0.1189
     26 H          60.4642   81.4024   13.4306 H       1  UNL1        0.1189
@<TRIPOS>BOND
     1    23    24    1
     2    24    22    1
     3    22     1    1
     4     1     2   ar
     5     2     3   ar
     6     3    10    1
     7    10    11    2
     8    10    12    2
     9    10    13    1
    10    13    14   ar
    11    14    15    1
    12    14    16   ar
    13    16    17   ar
    14    17    18   ar
    15    18    19   ar
    16    19    20   ar
    17    20    21   ar
    18     3     4   ar
    19     4     5   ar
    20     5     6   ar
    21     6     7   ar
    22     7     8   ar
    23     8     9   ar
    24     9     1   ar
    25    21    13   ar
    26     9     4   ar
    27    21    17   ar
    28    23    25    1
    29    23    26    1
@<TRIPOS>MOLECULE
*****
 26 29 0 0 0
SMALL
GASTEIGER

@<TRIPOS>ATOM
      1 C          63.8307   88.8211   13.7806 C.ar    1  UNL1       -0.0004
      2 C          63.9251   87.3293   13.9063 C.ar    1  UNL1        0.0957
      3 N          63.3201   86.7213   12.6757 N.ar    1  UNL1       -0.2067
      4 C          62.8518   87.8373   11.7895 C.ar    1  UNL1        0.0823
      5 C          62.1787   87.8394   10.4490 C.ar    1  UNL1        0.0189
      6 C          61.8213   89.1392    9.7914 C.ar    1  UNL1        0.0015
      7 C          62.1369   90.4370   10.4742 C.ar    1  UNL1        0.0001
      8 C          62.8099   90.4349   11.8147 C.ar    1  UNL1        0.0012
      9 C          63.1674   89.1350   12.4724 C.ar    1  UNL1        0.0151
     10 S          63.2037   85.2548   12.3828 S.O2    1  UNL1        0.1038
     11 O          64.3870   84.9849   13.2642 O.2     1  UNL1       -0.1461
     12 O          62.0204   85.5247   11.5014 O.2     1  UNL1       -0.1461
     13 C          63.0873   83.7883   12.0898 C.ar    1  UNL1        0.2241
     14 C          63.4613   83.1139   10.8032 C.ar    1  UNL1        0.1761
     15 CL         64.0172   83.7876    9.5837 Cl      1  UNL1       -0.0582
     16 N          63.1816   81.6476   10.9502 N.ar    1  UNL1       -0.2075
     17 C          62.6349   81.4157   12.3276 C.ar    1  UNL1        0.1813
     18 S          62.1242   80.3662   13.2697 S.2     1  UNL1       -0.0479
     19 C          61.7503   81.0405   14.5563 C.ar    1  UNL1        0.0574
     20 C          62.0299   82.5069   14.4093 C.ar    1  UNL1        0.0903
     21 N          62.5766   82.7387   13.0320 N.ar    1  UNL1       -0.2665
     22 C          64.3147   89.8230   14.7865 C.3     1  UNL1        0.0448
     23 N          65.3839   92.1881   14.9030 N.3     1  UNL1       -0.3209
     24 C          65.4271   90.7648   14.4316 C.3     1  UNL1        0.0699
     25 H          66.2135   92.6810   14.5727 H       1  UNL1        0.1189
     26 H          65.3600   92.2080   15.9226 H       1  UNL1        0.1189
@<TRIPOS>BOND
     1    23    24    1
     2    24    22    1
     3    22     1    1
     4     1     2   ar
     5     2     3   ar
     6     3    10    1
     7    10    11    2
     8    10    12    2
     9    10    13    1
    10    13    14   ar
    11    14    15    1
    12    14    16   ar
    13    16    17   ar
    14    17    18   ar
    15    18    19   ar
    16    19    20   ar
    17    20    21   ar
    18     3     4   ar
    19     4     5   ar
    20     5     6   ar
    21     6     7   ar
    22     7     8   ar
    23     8     9   ar
    24     9     1   ar
    25    21    13   ar
    26     9     4   ar
    27    21    17   ar
    28    23    25    1
    29    23    26    1
@<TRIPOS>MOLECULE
*****
 26 29 0 0 0
SMALL
GASTEIGER

@<TRIPOS>ATOM
      1 C          62.5220   89.1304   10.9538 C.ar    1  UNL1       -0.0004
      2 C          62.3114   87.6620   11.1762 C.ar    1  UNL1        0.0957
      3 N          62.9716   87.2899   12.4707 N.ar    1  UNL1       -0.2067
      4 C          63.5903   88.5284   13.0483 C.ar    1  UNL1        0.0823
      5 C          64.3707   88.7672   14.3068 C.ar    1  UNL1        0.0189
      6 C          64.8733   90.1436   14.6277 C.ar    1  UNL1        0.0015
      7 C          64.5953   91.2811   13.6903 C.ar    1  UNL1        0.0001
      8 C          63.8149   91.0422   12.4318 C.ar    1  UNL1        0.0012
      9 C          63.3123   89.6658   12.1108 C.ar    1  UNL1        0.0151
     10 S          63.0070   85.9200   13.0805 S.O2    1  UNL1        0.1038
     11 O          64.3244   86.2398   13.7225 O.2     1  UNL1       -0.1461
     12 O          61.6896   85.6001   12.4385 O.2     1  UNL1       -0.1461
     13 C          63.0424   84.5499   13.6903 C.ar    1  UNL1        0.2241
     14 C          63.0642   84.2382   15.1574 C.ar    1  UNL1        0.1761
     15 CL         63.0545   85.2418   16.2723 Cl      1  UNL1       -0.0582
     16 N          63.0974   82.7468   15.3140 N.ar    1  UNL1       -0.2075
     17 C          63.0961   82.1367   13.9436 C.ar    1  UNL1        0.1813
     18 S          63.1158   80.8380   13.1935 S.2     1  UNL1       -0.0479
     19 C          63.0940   81.1497   11.7264 C.ar    1  UNL1        0.0574
     20 C          63.0608   82.6411   11.5699 C.ar    1  UNL1        0.0903
     21 N          63.0621   83.2511   12.9402 N.ar    1  UNL1       -0.2665
     22 C          62.0287   89.9241    9.7804 C.3     1  UNL1        0.0448
     23 N          60.0550   89.3762    8.1821 N.3     1  UNL1       -0.3209
     24 C          60.5627   89.9644    9.4652 C.3     1  UNL1        0.0699
     25 H          59.0427   89.4905    8.1328 H       1  UNL1        0.1189
     26 H          60.2872   88.3836    8.1478 H       1  UNL1        0.1189
@<TRIPOS>BOND
     1    23    24    1
     2    24    22    1
     3    22     1    1
     4     1     2   ar
     5     2     3   ar
     6     3    10    1
     7    10    11    2
     8    10    12    2
     9    10    13    1
    10    13    14   ar
    11    14    15    1
    12    14    16   ar
    13    16    17   ar
    14    17    18   ar
    15    18    19   ar
    16    19    20   ar
    17    20    21   ar
    18     3     4   ar
    19     4     5   ar
    20     5     6   ar
    21     6     7   ar
    22     7     8   ar
    23     8     9   ar
    24     9     1   ar
    25    21    13   ar
    26     9     4   ar
    27    21    17   ar
    28    23    25    1
    29    23    26    1
@<TRIPOS>MOLECULE
*****
 26 29 0 0 0
SMALL
GASTEIGER

@<TRIPOS>ATOM
      1 C          62.1522   89.0270   11.2242 C.ar    1  UNL1       -0.0004
      2 C          62.0116   87.5947   10.8013 C.ar    1  UNL1        0.0957
      3 N          62.7339   86.7428   11.8026 N.ar    1  UNL1       -0.2067
      4 C          63.3209   87.6485   12.8442 C.ar    1  UNL1        0.0823
      5 C          64.1363   87.3702   14.0720 C.ar    1  UNL1        0.0189
      6 C          64.5922   88.5036   14.9424 C.ar    1  UNL1        0.0015
      7 C          64.2327   89.9153   14.5849 C.ar    1  UNL1        0.0001
      8 C          63.4173   90.1936   13.3571 C.ar    1  UNL1        0.0012
      9 C          62.9614   89.0603   12.4868 C.ar    1  UNL1        0.0151
     10 S          62.8489   85.2476   11.7682 S.O2    1  UNL1        0.1038
     11 O          61.8456   85.1959   10.6545 O.2     1  UNL1       -0.1461
     12 O          63.8524   85.2993   12.8820 O.2     1  UNL1       -0.1461
     13 C          62.9641   83.7524   11.7339 C.ar    1  UNL1        0.2241
     14 C          63.5759   82.9404   10.6311 C.ar    1  UNL1        0.1761
     15 CL         64.1799   83.4809    9.3690 Cl      1  UNL1       -0.0582
     16 N          63.4776   81.4929   11.0120 N.ar    1  UNL1       -0.2075
     17 C          62.8051   81.4103   12.3502 C.ar    1  UNL1        0.1813
     18 S          62.3287   80.4647   13.4127 S.2     1  UNL1       -0.0479
     19 C          61.7169   81.2768   14.5155 C.ar    1  UNL1        0.0574
     20 C          61.8152   82.7243   14.1346 C.ar    1  UNL1        0.0903
     21 N          62.4877   82.8068   12.7964 N.ar    1  UNL1       -0.2665
     22 C          61.5835   90.2171   10.5099 C.3     1  UNL1        0.0448
     23 N          59.3267   90.7686   11.6730 N.3     1  UNL1       -0.3209
     24 C          60.0975   90.4089   10.4375 C.3     1  UNL1        0.0699
     25 H          58.3372   90.8590   11.4422 H       1  UNL1        0.1189
     26 H          59.6717   91.6542   12.0433 H       1  UNL1        0.1189
@<TRIPOS>BOND
     1    23    24    1
     2    24    22    1
     3    22     1    1
     4     1     2   ar
     5     2     3   ar
     6     3    10    1
     7    10    11    2
     8    10    12    2
     9    10    13    1
    10    13    14   ar
    11    14    15    1
    12    14    16   ar
    13    16    17   ar
    14    17    18   ar
    15    18    19   ar
    16    19    20   ar
    17    20    21   ar
    18     3     4   ar
    19     4     5   ar
    20     5     6   ar
    21     6     7   ar
    22     7     8   ar
    23     8     9   ar
    24     9     1   ar
    25    21    13   ar
    26     9     4   ar
    27    21    17   ar
    28    23    25    1
    29    23    26    1
@<TRIPOS>MOLECULE
*****
 26 29 0 0 0
SMALL
GASTEIGER

@<TRIPOS>ATOM
      1 C          63.0926   89.7249   11.8209 C.ar    1  UNL1       -0.0004
      2 C          63.5456   88.6464   12.7599 C.ar    1  UNL1        0.0957
      3 N          62.8778   87.3666   12.3524 N.ar    1  UNL1       -0.2067
      4 C          62.0121   87.6540   11.1616 C.ar    1  UNL1        0.0823
      5 C          61.1202   86.7769   10.3339 C.ar    1  UNL1        0.0189
      6 C          60.3610   87.3574    9.1778 C.ar    1  UNL1        0.0015
      7 C          60.4937   88.8149    8.8493 C.ar    1  UNL1        0.0001
      8 C          61.3857   89.6920    9.6770 C.ar    1  UNL1        0.0012
      9 C          62.1449   89.1116   10.8331 C.ar    1  UNL1        0.0151
     10 S          63.0461   86.0333   13.0187 S.O2    1  UNL1        0.1038
     11 O          64.3201   86.5099   13.6507 O.2     1  UNL1       -0.1461
     12 O          61.7720   85.5566   12.3867 O.2     1  UNL1       -0.1461
     13 C          63.2143   84.6999   13.6850 C.ar    1  UNL1        0.2241
     14 C          63.4716   84.4701   15.1448 C.ar    1  UNL1        0.1761
     15 CL         63.6060   85.5331   16.1945 Cl      1  UNL1       -0.0582
     16 N          63.5711   82.9905   15.3705 N.ar    1  UNL1       -0.2075
     17 C          63.3752   82.3059   14.0503 C.ar    1  UNL1        0.1813
     18 S          63.3156   80.9685   13.3739 S.2     1  UNL1       -0.0479
     19 C          63.0582   81.1983   11.9141 C.ar    1  UNL1        0.0574
     20 C          62.9588   82.6779   11.6884 C.ar    1  UNL1        0.0903
     21 N          63.1547   83.3624   13.0086 N.ar    1  UNL1       -0.2665
     22 C          63.5135   91.1640   11.8624 C.3     1  UNL1        0.0448
     23 N          64.6354   91.8988   14.0876 N.3     1  UNL1       -0.3209
     24 C          64.7389   91.5653   12.6288 C.3     1  UNL1        0.0699
     25 H          65.5574   92.1480   14.4457 H       1  UNL1        0.1189
     26 H          64.2801   91.0897   14.5970 H       1  UNL1        0.1189
@<TRIPOS>BOND
     1    23    24    1
     2    24    22    1
     3    22     1    1
     4     1     2   ar
     5     2     3   ar
     6     3    10    1
     7    10    11    2
     8    10    12    2
     9    10    13    1
    10    13    14   ar
    11    14    15    1
    12    14    16   ar
    13    16    17   ar
    14    17    18   ar
    15    18    19   ar
    16    19    20   ar
    17    20    21   ar
    18     3     4   ar
    19     4     5   ar
    20     5     6   ar
    21     6     7   ar
    22     7     8   ar
    23     8     9   ar
    24     9     1   ar
    25    21    13   ar
    26     9     4   ar
    27    21    17   ar
    28    23    25    1
    29    23    26    1
@<TRIPOS>MOLECULE
*****
 26 29 0 0 0
SMALL
GASTEIGER

@<TRIPOS>ATOM
      1 C          62.8418   82.2962   12.1673 C.ar    1  UNL1       -0.0004
      2 C          62.2556   83.2370   11.1567 C.ar    1  UNL1        0.0957
      3 N          62.5070   84.6387   11.6278 N.ar    1  UNL1       -0.2067
      4 C          63.2486   84.5643   12.9295 C.ar    1  UNL1        0.0823
      5 C          63.7621   85.6277   13.8543 C.ar    1  UNL1        0.0189
      6 C          64.4826   85.2434   15.1125 C.ar    1  UNL1        0.0015
      7 C          64.6896   83.7957   15.4460 C.ar    1  UNL1        0.0001
      8 C          64.1760   82.7322   14.5212 C.ar    1  UNL1        0.0012
      9 C          63.4555   83.1165   13.2630 C.ar    1  UNL1        0.0151
     10 S          62.0900   85.8944   10.9212 S.O2    1  UNL1        0.1038
     11 O          62.9789   85.5398    9.7663 O.2     1  UNL1       -0.1461
     12 O          61.2010   86.2491   12.0762 O.2     1  UNL1       -0.1461
     13 C          61.6729   87.1502   10.2147 C.ar    1  UNL1        0.2241
     14 C          60.7795   87.2302    9.0124 C.ar    1  UNL1        0.1761
     15 CL         60.1464   86.0685    8.3056 Cl      1  UNL1       -0.0582
     16 N          60.6305   88.6758    8.6411 N.ar    1  UNL1       -0.2075
     17 C          61.4318   89.4893    9.6139 C.ar    1  UNL1        0.1813
     18 S          61.8348   90.8854    9.9855 S.2     1  UNL1       -0.0479
     19 C          62.7282   90.8055   11.1878 C.ar    1  UNL1        0.0574
     20 C          62.8773   89.3598   11.5591 C.ar    1  UNL1        0.0903
     21 N          62.0760   88.5464   10.5864 N.ar    1  UNL1       -0.2665
     22 C          62.8185   80.7981   12.0950 C.3     1  UNL1        0.0448
     23 N          61.0901   80.6153   14.0262 N.3     1  UNL1       -0.3209
     24 C          62.1791   80.0040   13.1953 C.3     1  UNL1        0.0699
     25 H          60.7730   79.9397   14.7215 H       1  UNL1        0.1189
     26 H          60.3088   80.8758   13.4243 H       1  UNL1        0.1189
@<TRIPOS>BOND
     1    23    24    1
     2    24    22    1
     3    22     1    1
     4     1     2   ar
     5     2     3   ar
     6     3    10    1
     7    10    11    2
     8    10    12    2
     9    10    13    1
    10    13    14   ar
    11    14    15    1
    12    14    16   ar
    13    16    17   ar
    14    17    18   ar
    15    18    19   ar
    16    19    20   ar
    17    20    21   ar
    18     3     4   ar
    19     4     5   ar
    20     5     6   ar
    21     6     7   ar
    22     7     8   ar
    23     8     9   ar
    24     9     1   ar
    25    21    13   ar
    26     9     4   ar
    27    21    17   ar
    28    23    25    1
    29    23    26    1
@<TRIPOS>MOLECULE
*****
 26 29 0 0 0
SMALL
GASTEIGER

@<TRIPOS>ATOM
      1 C          62.0331   89.3391   10.7503 C.ar    1  UNL1       -0.0004
      2 C          62.7029   88.1934   11.4495 C.ar    1  UNL1        0.0957
      3 N          62.1924   86.9192   10.8448 N.ar    1  UNL1       -0.2067
      4 C          61.2071   87.2773    9.7720 C.ar    1  UNL1        0.0823
      5 C          60.3869   86.4347    8.8407 C.ar    1  UNL1        0.0189
      6 C          59.4682   87.0878    7.8511 C.ar    1  UNL1        0.0015
      7 C          59.3697   88.5834    7.7926 C.ar    1  UNL1        0.0001
      8 C          60.1900   89.4260    8.7239 C.ar    1  UNL1        0.0012
      9 C          61.1086   88.7729    9.7136 C.ar    1  UNL1        0.0151
     10 S          62.5962   85.5305   11.2431 S.O2    1  UNL1        0.1038
     11 O          63.1289   86.0580   12.5422 O.2     1  UNL1       -0.1461
     12 O          62.0635   85.0030    9.9439 O.2     1  UNL1       -0.1461
     13 C          63.0001   84.1418   11.6413 C.ar    1  UNL1        0.2241
     14 C          63.8186   83.1916   10.8184 C.ar    1  UNL1        0.1761
     15 CL         64.3769   83.4632    9.4529 Cl      1  UNL1       -0.0582
     16 N          63.9807   81.9221   11.6007 N.ar    1  UNL1       -0.2075
     17 C          63.2624   82.0877   12.9071 C.ar    1  UNL1        0.1813
     18 S          62.9187   81.4055   14.1979 S.2     1  UNL1       -0.0479
     19 C          62.1002   82.3557   15.0208 C.ar    1  UNL1        0.0574
     20 C          61.9381   83.6252   14.2385 C.ar    1  UNL1        0.0903
     21 N          62.6563   83.4596   12.9322 N.ar    1  UNL1       -0.2665
     22 C          62.2497   90.7953   11.0375 C.3     1  UNL1        0.0448
     23 N          63.4617   91.4280   13.2468 N.3     1  UNL1       -0.3209
     24 C          63.4870   91.2417   11.7586 C.3     1  UNL1        0.0699
     25 H          64.3813   91.7316   13.5671 H       1  UNL1        0.1189
     26 H          63.2198   90.5447   13.6960 H       1  UNL1        0.1189
@<TRIPOS>BOND
     1    23    24    1
     2    24    22    1
     3    22     1    1
     4     1     2   ar
     5     2     3   ar
     6     3    10    1
     7    10    11    2
     8    10    12    2
     9    10    13    1
    10    13    14   ar
    11    14    15    1
    12    14    16   ar
    13    16    17   ar
    14    17    18   ar
    15    18    19   ar
    16    19    20   ar
    17    20    21   ar
    18     3     4   ar
    19     4     5   ar
    20     5     6   ar
    21     6     7   ar
    22     7     8   ar
    23     8     9   ar
    24     9     1   ar
    25    21    13   ar
    26     9     4   ar
    27    21    17   ar
    28    23    25    1
    29    23    26    1
