@<TRIPOS>MOLECULE
*****
 29 32 0 0 0
SMALL
GASTEIGER

@<TRIPOS>ATOM
      1 C          62.3914   89.9169   10.2037 C.3     1  UNL1        0.0282
      2 C          62.7689   88.9185   11.2576 C.3     1  UNL1        0.1189
      3 C          62.4840   87.4610   11.0464 C.ar    1  UNL1        0.1138
      4 N          61.8470   86.7172    9.9102 N.ar    1  UNL1       -0.1315
      5 N          61.8309   85.2591   10.2618 N.ar    1  UNL1       -0.0576
      6 N          62.4579   85.1017   11.6154 N.ar    1  UNL1       -0.1813
      7 C          62.8615   86.4626   12.1003 C.ar    1  UNL1        0.0837
      8 C          63.5241   86.9216   13.3653 C.3     1  UNL1        0.0688
      9 C          63.8091   88.3791   13.5764 C.3     1  UNL1        0.1004
     10 N          63.4315   89.3775   12.5226 N.am    1  UNL1       -0.2719
     11 C          63.7166   90.8350   12.7338 C.2     1  UNL1        0.2501
     12 O          63.3390   91.8334   11.6800 O.2     1  UNL1       -0.2699
     13 C          64.3791   91.2941   13.9988 C.ar    1  UNL1        0.0641
     14 C          63.6656   91.1579   15.3112 C.ar    1  UNL1        0.0054
     15 C          64.3283   91.6170   16.5762 C.ar    1  UNL1        0.0001
     16 C          65.7043   92.2121   16.5288 C.ar    1  UNL1        0.0047
     17 C          66.4178   92.3483   15.2164 C.ar    1  UNL1        0.0821
     18 C          65.7552   91.8892   13.9513 C.ar    1  UNL1        0.0659
     19 CL         66.4687   92.0253   12.6390 Cl      1  UNL1       -0.0822
     20 C          67.7939   92.9434   15.1690 C.3     1  UNL1        0.4194
     21 F          69.1699   93.5386   15.1216 F       1  UNL1       -0.1658
     22 F          68.3757   91.6334   15.6111 F       1  UNL1       -0.1658
     23 F          67.2121   94.2534   14.7268 F       1  UNL1       -0.1658
     24 C          62.6479   83.8103   12.3542 C.ar    1  UNL1        0.2541
     25 N          62.5265   83.7765   13.8489 N.ar    1  UNL1       -0.2084
     26 C          62.7166   82.4849   14.5879 C.ar    1  UNL1        0.1037
     27 C          63.0280   81.2273   13.8321 C.ar    1  UNL1        0.0415
     28 C          63.1494   81.2612   12.3373 C.ar    1  UNL1        0.1037
     29 N          62.9594   82.5526   11.5984 N.ar    1  UNL1       -0.2084
@<TRIPOS>BOND
     1     2     1    1
     2     2     3    1
     3     3     4   ar
     4     4     5   ar
     5     5     6   ar
     6     6    24    1
     7    24    25   ar
     8    25    26   ar
     9    26    27   ar
    10    27    28   ar
    11    28    29   ar
    12     6     7   ar
    13     7     8    1
    14     8     9    1
    15     9    10    1
    16    10    11   am
    17    11    12    2
    18    11    13    1
    19    13    14   ar
    20    14    15   ar
    21    15    16   ar
    22    16    17   ar
    23    17    20    1
    24    20    21    1
    25    20    22    1
    26    20    23    1
    27    17    18   ar
    28    18    19    1
    29    10     2    1
    30    18    13   ar
    31     7     3   ar
    32    29    24   ar
@<TRIPOS>MOLECULE
*****
 29 32 0 0 0
SMALL
GASTEIGER

@<TRIPOS>ATOM
      1 C          63.3390   89.5318   17.0273 C.3     1  UNL1        0.0282
      2 C          63.4289   88.5869   15.8657 C.3     1  UNL1        0.1189
      3 C          63.3168   87.1082   16.0913 C.ar    1  UNL1        0.1138
      4 N          63.1166   86.2951   17.3358 N.ar    1  UNL1       -0.1315
      5 N          63.0828   84.8478   16.9433 N.ar    1  UNL1       -0.0576
      6 N          63.2620   84.7663   15.4563 N.ar    1  UNL1       -0.1813
      7 C          63.4067   86.1634   14.9297 C.ar    1  UNL1        0.0837
      8 C          63.6086   86.6973   13.5426 C.3     1  UNL1        0.0688
      9 C          63.7207   88.1760   13.3170 C.3     1  UNL1        0.1004
     10 N          63.6308   89.1207   14.4785 N.am    1  UNL1       -0.2719
     11 C          63.7429   90.5995   14.2529 C.2     1  UNL1        0.2501
     12 O          63.6530   91.5443   15.4145 O.2     1  UNL1       -0.2699
     13 C          63.9448   91.1334   12.8657 C.ar    1  UNL1        0.0641
     14 C          62.9803   90.7720   11.7753 C.ar    1  UNL1        0.0054
     15 C          63.1823   91.3059   10.3881 C.ar    1  UNL1        0.0001
     16 C          64.3486   92.2012   10.0915 C.ar    1  UNL1        0.0047
     17 C          65.3132   92.5626   11.1820 C.ar    1  UNL1        0.0821
     18 C          65.1112   92.0287   12.5692 C.ar    1  UNL1        0.0659
     19 CL         66.0757   92.3901   13.6596 Cl      1  UNL1       -0.0822
     20 C          66.4795   93.4579   10.8854 C.3     1  UNL1        0.4194
     21 F          67.6459   94.3532   10.5887 F       1  UNL1       -0.1658
     22 F          65.6703   94.6502   11.3021 F       1  UNL1       -0.1658
     23 F          67.2887   92.2656   10.4686 F       1  UNL1       -0.1658
     24 C          63.2915   83.5087   14.6394 C.ar    1  UNL1        0.2541
     25 N          62.2391   82.4589   14.8405 N.ar    1  UNL1       -0.2084
     26 C          62.2685   81.2012   14.0236 C.ar    1  UNL1        0.1037
     27 C          63.3503   80.9933   13.0055 C.ar    1  UNL1        0.0415
     28 C          64.4027   82.0432   12.8044 C.ar    1  UNL1        0.1037
     29 N          64.3733   83.3008   13.6212 N.ar    1  UNL1       -0.2084
@<TRIPOS>BOND
     1     2     1    1
     2     2     3    1
     3     3     4   ar
     4     4     5   ar
     5     5     6   ar
     6     6    24    1
     7    24    25   ar
     8    25    26   ar
     9    26    27   ar
    10    27    28   ar
    11    28    29   ar
    12     6     7   ar
    13     7     8    1
    14     8     9    1
    15     9    10    1
    16    10    11   am
    17    11    12    2
    18    11    13    1
    19    13    14   ar
    20    14    15   ar
    21    15    16   ar
    22    16    17   ar
    23    17    20    1
    24    20    21    1
    25    20    22    1
    26    20    23    1
    27    17    18   ar
    28    18    19    1
    29    10     2    1
    30    18    13   ar
    31     7     3   ar
    32    29    24   ar
@<TRIPOS>MOLECULE
*****
 29 32 0 0 0
SMALL
GASTEIGER

@<TRIPOS>ATOM
      1 C          63.4759   89.6544   14.1827 C.3     1  UNL1        0.0282
      2 C          63.7612   90.3107   12.8643 C.3     1  UNL1        0.1189
      3 C          64.5494   91.5860   12.8163 C.ar    1  UNL1        0.1138
      4 N          65.1704   92.4233   13.8948 N.ar    1  UNL1       -0.1315
      5 N          65.8393   93.5970   13.2431 N.ar    1  UNL1       -0.0576
      6 N          65.6318   93.4851   11.7617 N.ar    1  UNL1       -0.1813
      7 C          64.8346   92.2422   11.4979 C.ar    1  UNL1        0.0837
      8 C          64.3315   91.6232   10.2276 C.3     1  UNL1        0.0688
      9 C          63.5433   90.3479   10.2757 C.3     1  UNL1        0.1004
     10 N          63.2581   89.6917   11.5939 N.am    1  UNL1       -0.2719
     11 C          62.4697   88.4164   11.6420 C.2     1  UNL1        0.2501
     12 O          62.1846   87.7602   12.9603 O.2     1  UNL1       -0.2699
     13 C          61.9667   87.7973   10.3717 C.ar    1  UNL1        0.0641
     14 C          62.5955   86.5393    9.8501 C.ar    1  UNL1        0.0054
     15 C          62.0923   85.9203    8.5797 C.ar    1  UNL1        0.0001
     16 C          60.9605   86.5593    7.8311 C.ar    1  UNL1        0.0047
     17 C          60.3317   87.8173    8.3527 C.ar    1  UNL1        0.0821
     18 C          60.8348   88.4364    9.6230 C.ar    1  UNL1        0.0659
     19 CL         60.2060   89.6944   10.1446 Cl      1  UNL1       -0.0822
     20 C          59.1998   88.4563    7.6040 C.3     1  UNL1        0.4194
     21 F          58.0679   89.0952    6.8552 F       1  UNL1       -0.1658
     22 F          60.1022   89.5855    7.2033 F       1  UNL1       -0.1658
     23 F          58.2973   87.3271    8.0046 F       1  UNL1       -0.1658
     24 C          66.1335   94.4472   10.7260 C.ar    1  UNL1        0.2541
     25 N          65.7380   95.8927   10.7910 N.ar    1  UNL1       -0.2084
     26 C          66.2397   96.8549    9.7552 C.ar    1  UNL1        0.1037
     27 C          67.1367   96.3715    8.6546 C.ar    1  UNL1        0.0415
     28 C          67.5322   94.9260    8.5896 C.ar    1  UNL1        0.1037
     29 N          67.0306   93.9639    9.6253 N.ar    1  UNL1       -0.2084
@<TRIPOS>BOND
     1     2     1    1
     2     2     3    1
     3     3     4   ar
     4     4     5   ar
     5     5     6   ar
     6     6    24    1
     7    24    25   ar
     8    25    26   ar
     9    26    27   ar
    10    27    28   ar
    11    28    29   ar
    12     6     7   ar
    13     7     8    1
    14     8     9    1
    15     9    10    1
    16    10    11   am
    17    11    12    2
    18    11    13    1
    19    13    14   ar
    20    14    15   ar
    21    15    16   ar
    22    16    17   ar
    23    17    20    1
    24    20    21    1
    25    20    22    1
    26    20    23    1
    27    17    18   ar
    28    18    19    1
    29    10     2    1
    30    18    13   ar
    31     7     3   ar
    32    29    24   ar
@<TRIPOS>MOLECULE
*****
 29 32 0 0 0
SMALL
GASTEIGER

@<TRIPOS>ATOM
      1 C          63.7821   91.4289   14.2832 C.3     1  UNL1        0.0282
      2 C          63.5487   91.0791   12.8433 C.3     1  UNL1        0.1189
      3 C          62.3276   90.3025   12.4485 C.ar    1  UNL1        0.1138
      4 N          61.1868   89.7499   13.2505 N.ar    1  UNL1       -0.1315
      5 N          60.2485   89.0586   12.3063 N.ar    1  UNL1       -0.0576
      6 N          60.8093   89.1839   10.9207 N.ar    1  UNL1       -0.1813
      7 C          62.0943   89.9527   11.0086 C.ar    1  UNL1        0.0837
      8 C          63.0821   90.3794    9.9635 C.3     1  UNL1        0.0688
      9 C          64.3032   91.1560   10.3584 C.3     1  UNL1        0.1004
     10 N          64.5365   91.5058   11.7981 N.am    1  UNL1       -0.2719
     11 C          65.7577   92.2824   12.1929 C.2     1  UNL1        0.2501
     12 O          65.9910   92.6322   13.6328 O.2     1  UNL1       -0.2699
     13 C          66.7454   92.7091   11.1479 C.ar    1  UNL1        0.0641
     14 C          67.9848   91.8979   10.9117 C.ar    1  UNL1        0.0054
     15 C          68.9726   92.3247    9.8666 C.ar    1  UNL1        0.0001
     16 C          68.7210   93.5626    9.0578 C.ar    1  UNL1        0.0047
     17 C          67.4815   94.3739    9.2940 C.ar    1  UNL1        0.0821
     18 C          66.4938   93.9471   10.3391 C.ar    1  UNL1        0.0659
     19 CL         65.2544   94.7583   10.5753 Cl      1  UNL1       -0.0822
     20 C          67.2299   95.6118    8.4852 C.3     1  UNL1        0.4194
     21 F          66.9783   96.8497    7.6764 F       1  UNL1       -0.1658
     22 F          66.7611   94.7669    7.3379 F       1  UNL1       -0.1658
     23 F          67.6988   96.4567    9.6325 F       1  UNL1       -0.1658
     24 C          60.1933   88.6365    9.6674 C.ar    1  UNL1        0.2541
     25 N          59.9022   87.1694    9.5536 N.ar    1  UNL1       -0.2084
     26 C          59.2861   86.6220    8.3002 C.ar    1  UNL1        0.1037
     27 C          58.9613   87.5416    7.1607 C.ar    1  UNL1        0.0415
     28 C          59.2524   89.0087    7.2745 C.ar    1  UNL1        0.1037
     29 N          59.8684   89.5562    8.5278 N.ar    1  UNL1       -0.2084
@<TRIPOS>BOND
     1     2     1    1
     2     2     3    1
     3     3     4   ar
     4     4     5   ar
     5     5     6   ar
     6     6    24    1
     7    24    25   ar
     8    25    26   ar
     9    26    27   ar
    10    27    28   ar
    11    28    29   ar
    12     6     7   ar
    13     7     8    1
    14     8     9    1
    15     9    10    1
    16    10    11   am
    17    11    12    2
    18    11    13    1
    19    13    14   ar
    20    14    15   ar
    21    15    16   ar
    22    16    17   ar
    23    17    20    1
    24    20    21    1
    25    20    22    1
    26    20    23    1
    27    17    18   ar
    28    18    19    1
    29    10     2    1
    30    18    13   ar
    31     7     3   ar
    32    29    24   ar
@<TRIPOS>MOLECULE
*****
 29 32 0 0 0
SMALL
GASTEIGER

@<TRIPOS>ATOM
      1 C          62.5099   87.2728   17.7795 C.3     1  UNL1        0.0282
      2 C          63.1783   87.7246   16.5150 C.3     1  UNL1        0.1189
      3 C          63.4538   89.1821   16.2916 C.ar    1  UNL1        0.1138
      4 N          63.1827   90.3950   17.1315 N.ar    1  UNL1       -0.1315
      5 N          63.6836   91.5964   16.3861 N.ar    1  UNL1       -0.0576
      6 N          64.2643   91.1260   15.0855 N.ar    1  UNL1       -0.1813
      7 C          64.1223   89.6339   15.0271 C.ar    1  UNL1        0.0837
      8 C          64.5153   88.6282   13.9859 C.3     1  UNL1        0.0688
      9 C          64.2398   87.1708   14.2092 C.3     1  UNL1        0.1004
     10 N          63.5714   86.7190   15.4737 N.am    1  UNL1       -0.2719
     11 C          63.2959   85.2614   15.6970 C.2     1  UNL1        0.2501
     12 O          62.6274   84.8096   16.9615 O.2     1  UNL1       -0.2699
     13 C          63.6889   84.2557   14.6558 C.ar    1  UNL1        0.0641
     14 C          64.8900   84.5014   13.7914 C.ar    1  UNL1        0.0054
     15 C          65.2830   83.4956   12.7501 C.ar    1  UNL1        0.0001
     16 C          64.4750   82.2444   12.5733 C.ar    1  UNL1        0.0047
     17 C          63.2739   81.9987   13.4377 C.ar    1  UNL1        0.0821
     18 C          62.8809   83.0044   14.4790 C.ar    1  UNL1        0.0659
     19 CL         61.6798   82.7587   15.3433 Cl      1  UNL1       -0.0822
     20 C          62.4658   80.7474   13.2609 C.3     1  UNL1        0.4194
     21 F          61.6578   79.4960   13.0840 F       1  UNL1       -0.1658
     22 F          61.5555   81.4693   12.3121 F       1  UNL1       -0.1658
     23 F          63.3762   80.0255   14.2097 F       1  UNL1       -0.1658
     24 C          64.8791   91.9952   14.0288 C.ar    1  UNL1        0.2541
     25 N          65.9024   93.0248   14.4065 N.ar    1  UNL1       -0.2084
     26 C          66.5172   93.8941   13.3498 C.ar    1  UNL1        0.1037
     27 C          66.1087   93.7336   11.9156 C.ar    1  UNL1        0.0415
     28 C          65.0853   92.7039   11.5379 C.ar    1  UNL1        0.1037
     29 N          64.4705   91.8348   12.5944 N.ar    1  UNL1       -0.2084
@<TRIPOS>BOND
     1     2     1    1
     2     2     3    1
     3     3     4   ar
     4     4     5   ar
     5     5     6   ar
     6     6    24    1
     7    24    25   ar
     8    25    26   ar
     9    26    27   ar
    10    27    28   ar
    11    28    29   ar
    12     6     7   ar
    13     7     8    1
    14     8     9    1
    15     9    10    1
    16    10    11   am
    17    11    12    2
    18    11    13    1
    19    13    14   ar
    20    14    15   ar
    21    15    16   ar
    22    16    17   ar
    23    17    20    1
    24    20    21    1
    25    20    22    1
    26    20    23    1
    27    17    18   ar
    28    18    19    1
    29    10     2    1
    30    18    13   ar
    31     7     3   ar
    32    29    24   ar
@<TRIPOS>MOLECULE
*****
 29 32 0 0 0
SMALL
GASTEIGER

@<TRIPOS>ATOM
      1 C          61.7891   88.1944   10.1036 C.3     1  UNL1        0.0282
      2 C          62.6272   88.3525   11.3376 C.3     1  UNL1        0.1189
      3 C          63.2662   89.6740   11.6461 C.ar    1  UNL1        0.1138
      4 N          63.2488   90.9897   10.9259 N.ar    1  UNL1       -0.1315
      5 N          64.0761   91.9609   11.7148 N.ar    1  UNL1       -0.0576
      6 N          64.6048   91.2454   12.9225 N.ar    1  UNL1       -0.1813
      7 C          64.1042   89.8320   12.8801 C.ar    1  UNL1        0.0837
      8 C          64.3032   88.6685   13.8056 C.3     1  UNL1        0.0688
      9 C          63.6642   87.3470   13.4971 C.3     1  UNL1        0.1004
     10 N          62.8262   87.1890   12.2632 N.am    1  UNL1       -0.2719
     11 C          62.1871   85.8673   11.9547 C.2     1  UNL1        0.2501
     12 O          61.3491   85.7093   10.7207 O.2     1  UNL1       -0.2699
     13 C          62.3861   84.7038   12.8802 C.ar    1  UNL1        0.0641
     14 C          62.4708   84.9291   14.3608 C.ar    1  UNL1        0.0054
     15 C          62.6698   83.7655   15.2863 C.ar    1  UNL1        0.0001
     16 C          62.7841   82.3768   14.7313 C.ar    1  UNL1        0.0047
     17 C          62.6995   82.1515   13.2507 C.ar    1  UNL1        0.0821
     18 C          62.5005   83.3150   12.3251 C.ar    1  UNL1        0.0659
     19 CL         62.4158   83.0896   10.8446 Cl      1  UNL1       -0.0822
     20 C          62.8138   80.7626   12.6956 C.3     1  UNL1        0.4194
     21 F          62.9281   79.3738   12.1406 F       1  UNL1       -0.1658
     22 F          64.1483   81.1087   12.1046 F       1  UNL1       -0.1658
     23 F          61.4793   80.4165   13.2867 F       1  UNL1       -0.1658
     24 C          65.4803   91.8391   13.9860 C.ar    1  UNL1        0.2541
     25 N          66.8713   92.2875   13.6483 N.ar    1  UNL1       -0.2084
     26 C          67.7469   92.8813   14.7118 C.ar    1  UNL1        0.1037
     27 C          67.2314   93.0265   16.1129 C.ar    1  UNL1        0.0415
     28 C          65.8404   92.5780   16.4506 C.ar    1  UNL1        0.1037
     29 N          64.9648   91.9844   15.3872 N.ar    1  UNL1       -0.2084
@<TRIPOS>BOND
     1     2     1    1
     2     2     3    1
     3     3     4   ar
     4     4     5   ar
     5     5     6   ar
     6     6    24    1
     7    24    25   ar
     8    25    26   ar
     9    26    27   ar
    10    27    28   ar
    11    28    29   ar
    12     6     7   ar
    13     7     8    1
    14     8     9    1
    15     9    10    1
    16    10    11   am
    17    11    12    2
    18    11    13    1
    19    13    14   ar
    20    14    15   ar
    21    15    16   ar
    22    16    17   ar
    23    17    20    1
    24    20    21    1
    25    20    22    1
    26    20    23    1
    27    17    18   ar
    28    18    19    1
    29    10     2    1
    30    18    13   ar
    31     7     3   ar
    32    29    24   ar
@<TRIPOS>MOLECULE
*****
 29 32 0 0 0
SMALL
GASTEIGER

@<TRIPOS>ATOM
      1 C          62.3468   87.1889   17.7003 C.3     1  UNL1        0.0282
      2 C          63.0599   87.6582   16.4668 C.3     1  UNL1        0.1189
      3 C          63.3809   89.1131   16.2938 C.ar    1  UNL1        0.1138
      4 N          63.1215   90.3083   17.1622 N.ar    1  UNL1       -0.1315
      5 N          63.6742   91.5162   16.4654 N.ar    1  UNL1       -0.0576
      6 N          64.2752   91.0675   15.1664 N.ar    1  UNL1       -0.1813
      7 C          64.0939   89.5823   15.0603 C.ar    1  UNL1        0.0837
      8 C          64.4860   88.5965   13.9999 C.3     1  UNL1        0.0688
      9 C          64.1650   87.1415   14.1730 C.3     1  UNL1        0.1004
     10 N          63.4520   86.6723   15.4063 N.am    1  UNL1       -0.2719
     11 C          63.1310   85.2173   15.5794 C.2     1  UNL1        0.2501
     12 O          62.4179   84.7481   16.8129 O.2     1  UNL1       -0.2699
     13 C          63.5231   84.2315   14.5190 C.ar    1  UNL1        0.0641
     14 C          64.1481   82.9237   14.9050 C.ar    1  UNL1        0.0054
     15 C          64.5402   81.9379   13.8445 C.ar    1  UNL1        0.0001
     16 C          64.3072   82.2598   12.3982 C.ar    1  UNL1        0.0047
     17 C          63.6821   83.5677   12.0122 C.ar    1  UNL1        0.0821
     18 C          63.2900   84.5535   13.0726 C.ar    1  UNL1        0.0659
     19 CL         62.6650   85.8613   12.6866 Cl      1  UNL1       -0.0822
     20 C          63.4491   83.8897   10.5658 C.3     1  UNL1        0.4194
     21 F          63.2161   84.2116    9.1194 F       1  UNL1       -0.1658
     22 F          62.0204   84.2291   10.8715 F       1  UNL1       -0.1658
     23 F          64.8779   83.5502   10.2601 F       1  UNL1       -0.1658
     24 C          64.9407   91.9492   14.1516 C.ar    1  UNL1        0.2541
     25 N          65.9549   92.9638   14.5897 N.ar    1  UNL1       -0.2084
     26 C          66.6204   93.8456   13.5750 C.ar    1  UNL1        0.1037
     27 C          66.2717   93.7128   12.1222 C.ar    1  UNL1        0.0415
     28 C          65.2574   92.6981   11.6841 C.ar    1  UNL1        0.1037
     29 N          64.5919   91.8164   12.6988 N.ar    1  UNL1       -0.2084
@<TRIPOS>BOND
     1     2     1    1
     2     2     3    1
     3     3     4   ar
     4     4     5   ar
     5     5     6   ar
     6     6    24    1
     7    24    25   ar
     8    25    26   ar
     9    26    27   ar
    10    27    28   ar
    11    28    29   ar
    12     6     7   ar
    13     7     8    1
    14     8     9    1
    15     9    10    1
    16    10    11   am
    17    11    12    2
    18    11    13    1
    19    13    14   ar
    20    14    15   ar
    21    15    16   ar
    22    16    17   ar
    23    17    20    1
    24    20    21    1
    25    20    22    1
    26    20    23    1
    27    17    18   ar
    28    18    19    1
    29    10     2    1
    30    18    13   ar
    31     7     3   ar
    32    29    24   ar
@<TRIPOS>MOLECULE
*****
 29 32 0 0 0
SMALL
GASTEIGER

@<TRIPOS>ATOM
      1 C          65.4448   90.7854   14.5968 C.3     1  UNL1        0.0282
      2 C          64.7720   90.8551   13.2579 C.3     1  UNL1        0.1189
      3 C          63.8472   89.7563   12.8251 C.ar    1  UNL1        0.1138
      4 N          63.4088   88.4898   13.4987 N.ar    1  UNL1       -0.1315
      5 N          62.4652   87.7768   12.5762 N.ar    1  UNL1       -0.0576
      6 N          62.3203   88.6027   11.3324 N.ar    1  UNL1       -0.1813
      7 C          63.1744   89.8261   11.4862 C.ar    1  UNL1        0.0837
      8 C          63.4266   90.9946   10.5802 C.3     1  UNL1        0.0688
      9 C          64.3514   92.0934   11.0130 C.3     1  UNL1        0.1004
     10 N          65.0241   92.0237   12.3518 N.am    1  UNL1       -0.2719
     11 C          65.9490   93.1225   12.7846 C.2     1  UNL1        0.2501
     12 O          66.6217   93.0528   14.1235 O.2     1  UNL1       -0.2699
     13 C          66.2011   94.2911   11.8785 C.ar    1  UNL1        0.0641
     14 C          65.9397   95.6862   12.3635 C.ar    1  UNL1        0.0054
     15 C          66.1919   96.8548   11.4574 C.ar    1  UNL1        0.0001
     16 C          66.7053   96.6281   10.0664 C.ar    1  UNL1        0.0047
     17 C          66.9667   95.2329    9.5814 C.ar    1  UNL1        0.0821
     18 C          66.7146   94.0643   10.4875 C.ar    1  UNL1        0.0659
     19 CL         66.9760   92.6692   10.0025 Cl      1  UNL1       -0.0822
     20 C          67.4802   95.0063    8.1904 C.3     1  UNL1        0.4194
     21 F          67.9937   94.7796    6.7993 F       1  UNL1       -0.1658
     22 F          66.2636   95.6824    7.6311 F       1  UNL1       -0.1658
     23 F          68.6968   94.3301    8.7496 F       1  UNL1       -0.1658
     24 C          61.4705   88.2645   10.1435 C.ar    1  UNL1        0.2541
     25 N          60.6787   89.3382    9.4578 N.ar    1  UNL1       -0.2084
     26 C          59.8288   89.0000    8.2689 C.ar    1  UNL1        0.1037
     27 C          59.7708   87.5882    7.7657 C.ar    1  UNL1        0.0415
     28 C          60.5627   86.5144    8.4515 C.ar    1  UNL1        0.1037
     29 N          61.4125   86.8526    9.6403 N.ar    1  UNL1       -0.2084
@<TRIPOS>BOND
     1     2     1    1
     2     2     3    1
     3     3     4   ar
     4     4     5   ar
     5     5     6   ar
     6     6    24    1
     7    24    25   ar
     8    25    26   ar
     9    26    27   ar
    10    27    28   ar
    11    28    29   ar
    12     6     7   ar
    13     7     8    1
    14     8     9    1
    15     9    10    1
    16    10    11   am
    17    11    12    2
    18    11    13    1
    19    13    14   ar
    20    14    15   ar
    21    15    16   ar
    22    16    17   ar
    23    17    20    1
    24    20    21    1
    25    20    22    1
    26    20    23    1
    27    17    18   ar
    28    18    19    1
    29    10     2    1
    30    18    13   ar
    31     7     3   ar
    32    29    24   ar
@<TRIPOS>MOLECULE
*****
 29 32 0 0 0
SMALL
GASTEIGER

@<TRIPOS>ATOM
      1 C          61.6947   86.7580   11.5453 C.3     1  UNL1        0.0282
      2 C          61.5752   87.9817   10.6861 C.3     1  UNL1        0.1189
      3 C          60.6393   87.9868    9.5140 C.ar    1  UNL1        0.1138
      4 N          59.7139   86.9422    8.9640 N.ar    1  UNL1       -0.1315
      5 N          59.0226   87.5204    7.7650 N.ar    1  UNL1       -0.0576
      6 N          59.5207   88.9223    7.5738 N.ar    1  UNL1       -0.1813
      7 C          60.5199   89.2106    8.6548 C.ar    1  UNL1        0.0837
      8 C          61.3365   90.4293    8.9678 C.3     1  UNL1        0.0688
      9 C          62.2724   90.4242   10.1399 C.3     1  UNL1        0.1004
     10 N          62.3918   89.2005   10.9991 N.am    1  UNL1       -0.2719
     11 C          63.3279   89.1955   12.1713 C.2     1  UNL1        0.2501
     12 O          63.4472   87.9717   13.0304 O.2     1  UNL1       -0.2699
     13 C          64.1444   90.4142   12.4842 C.ar    1  UNL1        0.0641
     14 C          64.3414   91.4733   11.4405 C.ar    1  UNL1        0.0054
     15 C          65.1580   92.6921   11.7536 C.ar    1  UNL1        0.0001
     16 C          65.7776   92.8516   13.1102 C.ar    1  UNL1        0.0047
     17 C          65.5806   91.7924   14.1540 C.ar    1  UNL1        0.0821
     18 C          64.7640   90.5737   13.8410 C.ar    1  UNL1        0.0659
     19 CL         64.5670   89.5145   14.8848 Cl      1  UNL1       -0.0822
     20 C          66.2001   91.9519   15.5107 C.3     1  UNL1        0.4194
     21 F          66.8197   92.1115   16.8674 F       1  UNL1       -0.1658
     22 F          64.9147   92.5242   16.0305 F       1  UNL1       -0.1658
     23 F          67.4856   91.3797   14.9910 F       1  UNL1       -0.1658
     24 C          59.0944   89.8696    6.4918 C.ar    1  UNL1        0.2541
     25 N          57.6359   90.0945    6.2236 N.ar    1  UNL1       -0.2084
     26 C          57.2095   91.0419    5.1415 C.ar    1  UNL1        0.1037
     27 C          58.2418   91.7642    4.3276 C.ar    1  UNL1        0.0415
     28 C          59.7004   91.5393    4.5958 C.ar    1  UNL1        0.1037
     29 N          60.1268   90.5920    5.6778 N.ar    1  UNL1       -0.2084
@<TRIPOS>BOND
     1     2     1    1
     2     2     3    1
     3     3     4   ar
     4     4     5   ar
     5     5     6   ar
     6     6    24    1
     7    24    25   ar
     8    25    26   ar
     9    26    27   ar
    10    27    28   ar
    11    28    29   ar
    12     6     7   ar
    13     7     8    1
    14     8     9    1
    15     9    10    1
    16    10    11   am
    17    11    12    2
    18    11    13    1
    19    13    14   ar
    20    14    15   ar
    21    15    16   ar
    22    16    17   ar
    23    17    20    1
    24    20    21    1
    25    20    22    1
    26    20    23    1
    27    17    18   ar
    28    18    19    1
    29    10     2    1
    30    18    13   ar
    31     7     3   ar
    32    29    24   ar
