@<TRIPOS>MOLECULE
*****
 26 30 0 0 0
SMALL
GASTEIGER

@<TRIPOS>ATOM
      1 C          66.1099   94.2466   12.0391 C.ar    1  UNL1        0.0682
      2 C          66.5311   94.1876   13.4775 C.ar    1  UNL1        0.0099
      3 C          66.1330   93.0182   14.3283 C.ar    1  UNL1       -0.0038
      4 C          65.3137   91.9076   13.7405 C.ar    1  UNL1       -0.0239
      5 C          64.8925   91.9666   12.3021 C.ar    1  UNL1        0.0010
      6 C          65.2906   93.1360   11.4513 C.ar    1  UNL1        0.0080
      7 C          64.0732   90.8560   11.7143 C.3     1  UNL1        0.1345
      8 O          63.6520   90.9150   10.2759 O.3     1  UNL1       -0.3800
      9 C          63.6751   89.6864   12.5651 C.3     1  UNL1        0.0565
     10 C          64.0963   89.6275   14.0035 C.3     1  UNL1        0.0096
     11 C          64.9156   90.7381   14.5912 C.3     1  UNL1        0.0263
     12 H          63.1327   90.1251   10.0584 H       1  UNL1        0.2108
     13 C          62.8558   88.5759   11.9773 C.3     1  UNL1        0.1121
     14 C          62.9801   87.1181   12.3084 C.ar    1  UNL1       -0.0002
     15 C          63.8830   86.3758   13.2484 C.ar    1  UNL1       -0.0024
     16 C          63.7753   84.8848   13.3712 C.ar    1  UNL1       -0.0003
     17 C          62.7646   84.1360   12.5538 C.ar    1  UNL1        0.0000
     18 C          61.8618   84.8783   11.6137 C.ar    1  UNL1        0.0012
     19 C          61.9695   86.3694   11.4910 C.ar    1  UNL1        0.0152
     20 C          61.2206   87.3644   10.6549 C.ar    1  UNL1        0.0804
     21 C          60.1332   87.5166    9.6329 C.ar    1  UNL1        0.1177
     22 N          60.0089   88.9743    9.3019 N.ar    1  UNL1       -0.2223
     23 C          61.0195   89.7231   10.1193 C.ar    1  UNL1        0.1788
     24 N          61.7684   88.7281   10.9554 N.ar    1  UNL1       -0.3069
     25 N          66.9061   96.5857   10.3377 N.1     1  UNL1       -0.1908
     26 C          66.5080   95.4162   11.1883 C.1     1  UNL1        0.1004
@<TRIPOS>BOND
     1    25    26    3
     2    26     1    1
     3     1     2   ar
     4     2     3   ar
     5     3     4   ar
     6     4     5   ar
     7     5     6   ar
     8     5     7    1
     9     7     8    1
    10     7     9    1
    11     9    13    1
    12    13    14    1
    13    14    15   ar
    14    15    16   ar
    15    16    17   ar
    16    17    18   ar
    17    18    19   ar
    18    19    20    1
    19    20    21   ar
    20    21    22   ar
    21    22    23   ar
    22    23    24   ar
    23     9    10    1
    24    10    11    1
    25     6     1   ar
    26    13    24    1
    27    11     4    1
    28    19    14   ar
    29    24    20   ar
    30     8    12    1
@<TRIPOS>MOLECULE
*****
 26 30 0 0 0
SMALL
GASTEIGER

@<TRIPOS>ATOM
      1 C          59.7921   88.8330    7.7670 C.ar    1  UNL1        0.0682
      2 C          59.8634   87.3438    7.9326 C.ar    1  UNL1        0.0099
      3 C          60.6741   86.7511    9.0468 C.ar    1  UNL1       -0.0038
      4 C          61.4134   87.6475    9.9954 C.ar    1  UNL1       -0.0239
      5 C          61.3421   89.1366    9.8298 C.ar    1  UNL1        0.0010
      6 C          60.5314   89.7294    8.7156 C.ar    1  UNL1        0.0080
      7 C          62.0814   90.0330   10.7784 C.3     1  UNL1        0.1345
      8 O          62.0100   91.5222   10.6127 O.3     1  UNL1       -0.3800
      9 C          62.8921   89.4403   11.8927 C.3     1  UNL1        0.0565
     10 C          62.9633   87.9513   12.0583 C.3     1  UNL1        0.0096
     11 C          62.2240   87.0548   11.1097 C.3     1  UNL1        0.0263
     12 H          62.5403   91.9500   11.3032 H       1  UNL1        0.2108
     13 C          63.6314   90.3367   12.8413 C.3     1  UNL1        0.1121
     14 C          64.6230   91.3962   12.4614 C.ar    1  UNL1       -0.0002
     15 C          65.1427   91.8537   11.1308 C.ar    1  UNL1       -0.0024
     16 C          66.1528   92.9603   11.0604 C.ar    1  UNL1       -0.0003
     17 C          66.6432   93.6095   12.3206 C.ar    1  UNL1        0.0000
     18 C          66.1235   93.1520   13.6512 C.ar    1  UNL1        0.0012
     19 C          65.1134   92.0453   13.7216 C.ar    1  UNL1        0.0152
     20 C          64.4248   91.3870   14.8803 C.ar    1  UNL1        0.0804
     21 C          64.3024   91.3814   16.3754 C.ar    1  UNL1        0.1177
     22 N          63.3108   90.3219   16.7552 N.ar    1  UNL1       -0.2223
     23 C          62.8204   89.6728   15.4950 C.ar    1  UNL1        0.1788
     24 N          63.5089   90.3311   14.3363 N.ar    1  UNL1       -0.3069
     25 N          58.1708   90.0183    5.5384 N.1     1  UNL1       -0.1908
     26 C          58.9814   89.4257    6.6527 C.1     1  UNL1        0.1004
@<TRIPOS>BOND
     1    25    26    3
     2    26     1    1
     3     1     2   ar
     4     2     3   ar
     5     3     4   ar
     6     4     5   ar
     7     5     6   ar
     8     5     7    1
     9     7     8    1
    10     7     9    1
    11     9    13    1
    12    13    14    1
    13    14    15   ar
    14    15    16   ar
    15    16    17   ar
    16    17    18   ar
    17    18    19   ar
    18    19    20    1
    19    20    21   ar
    20    21    22   ar
    21    22    23   ar
    22    23    24   ar
    23     9    10    1
    24    10    11    1
    25     6     1   ar
    26    13    24    1
    27    11     4    1
    28    19    14   ar
    29    24    20   ar
    30     8    12    1
@<TRIPOS>MOLECULE
*****
 26 30 0 0 0
SMALL
GASTEIGER

@<TRIPOS>ATOM
      1 C          62.3732   84.5102   11.3741 C.ar    1  UNL1        0.0682
      2 C          61.6517   84.8850   10.1135 C.ar    1  UNL1        0.0099
      3 C          61.5490   86.3254    9.7080 C.ar    1  UNL1       -0.0038
      4 C          62.1678   87.3912   10.5631 C.ar    1  UNL1       -0.0239
      5 C          62.8893   87.0164   11.8237 C.ar    1  UNL1        0.0010
      6 C          62.9921   85.5760   12.2292 C.ar    1  UNL1        0.0080
      7 C          63.5082   88.0822   12.6788 C.3     1  UNL1        0.1345
      8 O          64.2297   87.7075   13.9393 O.3     1  UNL1       -0.3800
      9 C          63.4055   89.5228   12.2733 C.3     1  UNL1        0.0565
     10 C          62.6840   89.8974   11.0128 C.3     1  UNL1        0.0096
     11 C          62.0651   88.8317   10.1577 C.3     1  UNL1        0.0263
     12 H          64.5669   88.5089   14.3693 H       1  UNL1        0.2108
     13 C          64.0243   90.5886   13.1284 C.3     1  UNL1        0.1121
     14 C          64.8990   91.7080   12.6468 C.ar    1  UNL1       -0.0002
     15 C          65.3880   92.0824   11.2791 C.ar    1  UNL1       -0.0024
     16 C          66.2705   93.2821   11.1006 C.ar    1  UNL1       -0.0003
     17 C          66.6639   94.1074   12.2897 C.ar    1  UNL1        0.0000
     18 C          66.1748   93.7330   13.6574 C.ar    1  UNL1        0.0012
     19 C          65.2924   92.5333   13.8359 C.ar    1  UNL1        0.0152
     20 C          64.6609   91.9239   15.0524 C.ar    1  UNL1        0.0804
     21 C          64.5137   92.0574   16.5393 C.ar    1  UNL1        0.1177
     22 N          63.6390   90.9380   17.0208 N.ar    1  UNL1       -0.2223
     23 C          63.2456   90.1127   15.8317 C.ar    1  UNL1        0.1788
     24 N          63.8771   90.7220   14.6152 N.ar    1  UNL1       -0.3069
     25 N          62.5787   81.6292   12.1850 N.1     1  UNL1       -0.1908
     26 C          62.4759   83.0696   11.7795 C.1     1  UNL1        0.1004
@<TRIPOS>BOND
     1    25    26    3
     2    26     1    1
     3     1     2   ar
     4     2     3   ar
     5     3     4   ar
     6     4     5   ar
     7     5     6   ar
     8     5     7    1
     9     7     8    1
    10     7     9    1
    11     9    13    1
    12    13    14    1
    13    14    15   ar
    14    15    16   ar
    15    16    17   ar
    16    17    18   ar
    17    18    19   ar
    18    19    20    1
    19    20    21   ar
    20    21    22   ar
    21    22    23   ar
    22    23    24   ar
    23     9    10    1
    24    10    11    1
    25     6     1   ar
    26    13    24    1
    27    11     4    1
    28    19    14   ar
    29    24    20   ar
    30     8    12    1
@<TRIPOS>MOLECULE
*****
 26 30 0 0 0
SMALL
GASTEIGER

@<TRIPOS>ATOM
      1 C          65.9959   93.8993   12.0979 C.ar    1  UNL1        0.0682
      2 C          66.3678   93.8167   13.5487 C.ar    1  UNL1        0.0099
      3 C          65.9509   92.6283   14.3634 C.ar    1  UNL1       -0.0038
      4 C          65.1620   91.5224   13.7272 C.ar    1  UNL1       -0.0239
      5 C          64.7900   91.6051   12.2764 C.ar    1  UNL1        0.0010
      6 C          65.2069   92.7935   11.4618 C.ar    1  UNL1        0.0080
      7 C          64.0010   90.4992   11.6403 C.3     1  UNL1        0.1345
      8 O          63.6291   90.5819   10.1895 O.3     1  UNL1       -0.3800
      9 C          63.5841   89.3107   12.4550 C.3     1  UNL1        0.0565
     10 C          63.9560   89.2281   13.9057 C.3     1  UNL1        0.0096
     11 C          64.7450   90.3340   14.5418 C.3     1  UNL1        0.0263
     12 H          63.1244   89.7921    9.9396 H       1  UNL1        0.2108
     13 C          62.7951   88.2049   11.8188 C.3     1  UNL1        0.1121
     14 C          61.7559   88.3657   10.7492 C.ar    1  UNL1       -0.0002
     15 C          61.2241   89.5760   10.0403 C.ar    1  UNL1       -0.0024
     16 C          60.1619   89.4248    8.9922 C.ar    1  UNL1       -0.0003
     17 C          59.6313   88.0634    8.6528 C.ar    1  UNL1        0.0000
     18 C          60.1631   86.8532    9.3617 C.ar    1  UNL1        0.0012
     19 C          61.2254   87.0043   10.4098 C.ar    1  UNL1        0.0152
     20 C          61.9367   86.0021   11.2698 C.ar    1  UNL1        0.0804
     21 C          62.0485   84.5412   11.5916 C.ar    1  UNL1        0.1177
     22 N          63.0877   84.3804   12.6612 N.ar    1  UNL1       -0.2223
     23 C          63.6183   85.7418   13.0005 C.ar    1  UNL1        0.1788
     24 N          62.9069   86.7441   12.1406 N.ar    1  UNL1       -0.3069
     25 N          66.8299   96.2764   10.4687 N.1     1  UNL1       -0.1908
     26 C          66.4128   95.0879   11.2832 C.1     1  UNL1        0.1004
@<TRIPOS>BOND
     1    25    26    3
     2    26     1    1
     3     1     2   ar
     4     2     3   ar
     5     3     4   ar
     6     4     5   ar
     7     5     6   ar
     8     5     7    1
     9     7     8    1
    10     7     9    1
    11     9    13    1
    12    13    14    1
    13    14    15   ar
    14    15    16   ar
    15    16    17   ar
    16    17    18   ar
    17    18    19   ar
    18    19    20    1
    19    20    21   ar
    20    21    22   ar
    21    22    23   ar
    22    23    24   ar
    23     9    10    1
    24    10    11    1
    25     6     1   ar
    26    13    24    1
    27    11     4    1
    28    19    14   ar
    29    24    20   ar
    30     8    12    1
@<TRIPOS>MOLECULE
*****
 26 30 0 0 0
SMALL
GASTEIGER

@<TRIPOS>ATOM
      1 C          64.9537   91.1941   14.3276 C.ar    1  UNL1        0.0682
      2 C          64.2760   91.8807   13.1789 C.ar    1  UNL1        0.0099
      3 C          63.4879   91.0794   12.1855 C.ar    1  UNL1       -0.0038
      4 C          63.3775   89.5915   12.3408 C.ar    1  UNL1       -0.0239
      5 C          64.0552   88.9050   13.4895 C.ar    1  UNL1        0.0010
      6 C          64.8432   89.7063   14.4829 C.ar    1  UNL1        0.0080
      7 C          63.9448   87.4172   13.6449 C.3     1  UNL1        0.1345
      8 O          64.6224   86.7307   14.7935 O.3     1  UNL1       -0.3800
      9 C          63.1566   86.6158   12.6514 C.3     1  UNL1        0.0565
     10 C          62.4790   87.3024   11.5028 C.3     1  UNL1        0.0096
     11 C          62.5895   88.7902   11.3475 C.3     1  UNL1        0.0263
     12 H          64.4522   85.7769   14.7461 H       1  UNL1        0.2108
     13 C          63.0462   85.1280   12.8068 C.3     1  UNL1        0.1121
     14 C          63.2904   84.1090   11.7334 C.ar    1  UNL1       -0.0002
     15 C          63.6870   84.2436   10.2931 C.ar    1  UNL1       -0.0024
     16 C          63.8606   83.0184    9.4454 C.ar    1  UNL1       -0.0003
     17 C          63.6375   81.6586   10.0379 C.ar    1  UNL1        0.0000
     18 C          63.2409   81.5239   11.4782 C.ar    1  UNL1        0.0012
     19 C          63.0673   82.7491   12.3260 C.ar    1  UNL1        0.0152
     20 C          62.6853   82.9277   13.7655 C.ar    1  UNL1        0.0804
     21 C          62.3113   82.1976   15.0214 C.ar    1  UNL1        0.1177
     22 N          62.0672   83.2167   16.0947 N.ar    1  UNL1       -0.2223
     23 C          62.2902   84.5766   15.5021 C.ar    1  UNL1        0.1788
     24 N          62.6723   84.3979   14.0626 N.ar    1  UNL1       -0.3069
     25 N          66.5299   92.7969   16.3143 N.1     1  UNL1       -0.1908
     26 C          65.7418   91.9955   15.3210 C.1     1  UNL1        0.1004
@<TRIPOS>BOND
     1    25    26    3
     2    26     1    1
     3     1     2   ar
     4     2     3   ar
     5     3     4   ar
     6     4     5   ar
     7     5     6   ar
     8     5     7    1
     9     7     8    1
    10     7     9    1
    11     9    13    1
    12    13    14    1
    13    14    15   ar
    14    15    16   ar
    15    16    17   ar
    16    17    18   ar
    17    18    19   ar
    18    19    20    1
    19    20    21   ar
    20    21    22   ar
    21    22    23   ar
    22    23    24   ar
    23     9    10    1
    24    10    11    1
    25     6     1   ar
    26    13    24    1
    27    11     4    1
    28    19    14   ar
    29    24    20   ar
    30     8    12    1
@<TRIPOS>MOLECULE
*****
 26 30 0 0 0
SMALL
GASTEIGER

@<TRIPOS>ATOM
      1 C          62.7607   80.6086   11.9784 C.ar    1  UNL1        0.0682
      2 C          62.7620   80.3635   13.4582 C.ar    1  UNL1        0.0099
      3 C          62.7614   81.5225   14.4104 C.ar    1  UNL1       -0.0038
      4 C          62.7595   82.9266   13.8827 C.ar    1  UNL1       -0.0239
      5 C          62.7582   83.1717   12.4029 C.ar    1  UNL1        0.0010
      6 C          62.7588   82.0127   11.4507 C.ar    1  UNL1        0.0080
      7 C          62.7562   84.5758   11.8752 C.3     1  UNL1        0.1345
      8 O          62.7549   84.8209   10.3953 O.3     1  UNL1       -0.3800
      9 C          62.7556   85.7349   12.8274 C.3     1  UNL1        0.0565
     10 C          62.7569   85.4898   14.3071 C.3     1  UNL1        0.0096
     11 C          62.7589   84.0857   14.8348 C.3     1  UNL1        0.0263
     12 H          62.7538   85.7759   10.2258 H       1  UNL1        0.2108
     13 C          62.7537   87.1390   12.2997 C.3     1  UNL1        0.1121
     14 C          63.4611   88.3118   12.9115 C.ar    1  UNL1       -0.0002
     15 C          64.3180   88.4399   14.1359 C.ar    1  UNL1       -0.0024
     16 C          64.9025   89.7707   14.5063 C.ar    1  UNL1       -0.0003
     17 C          64.6301   90.9734   13.6522 C.ar    1  UNL1        0.0000
     18 C          63.7732   90.8453   12.4279 C.ar    1  UNL1        0.0012
     19 C          63.1887   89.5145   12.0575 C.ar    1  UNL1        0.0152
     20 C          62.3129   89.0850   10.9179 C.ar    1  UNL1        0.0804
     21 C          61.6033   89.5629    9.6857 C.ar    1  UNL1        0.1177
     22 N          60.8960   88.3901    9.0739 N.ar    1  UNL1       -0.2223
     23 C          61.1684   87.1874    9.9279 C.ar    1  UNL1        0.1788
     24 N          62.0441   87.6169   11.0675 N.ar    1  UNL1       -0.3069
     25 N          62.7618   78.2905   10.0741 N.1     1  UNL1       -0.1908
     26 C          62.7613   79.4495   11.0262 C.1     1  UNL1        0.1004
@<TRIPOS>BOND
     1    25    26    3
     2    26     1    1
     3     1     2   ar
     4     2     3   ar
     5     3     4   ar
     6     4     5   ar
     7     5     6   ar
     8     5     7    1
     9     7     8    1
    10     7     9    1
    11     9    13    1
    12    13    14    1
    13    14    15   ar
    14    15    16   ar
    15    16    17   ar
    16    17    18   ar
    17    18    19   ar
    18    19    20    1
    19    20    21   ar
    20    21    22   ar
    21    22    23   ar
    22    23    24   ar
    23     9    10    1
    24    10    11    1
    25     6     1   ar
    26    13    24    1
    27    11     4    1
    28    19    14   ar
    29    24    20   ar
    30     8    12    1
@<TRIPOS>MOLECULE
*****
 26 30 0 0 0
SMALL
GASTEIGER

@<TRIPOS>ATOM
      1 C          62.9203   80.5011   11.3333 C.ar    1  UNL1        0.0682
      2 C          62.6890   80.0809   12.7545 C.ar    1  UNL1        0.0099
      3 C          62.5235   81.1177   13.8257 C.ar    1  UNL1       -0.0038
      4 C          62.5893   82.5748   13.4757 C.ar    1  UNL1       -0.0239
      5 C          62.8205   82.9950   12.0544 C.ar    1  UNL1        0.0010
      6 C          62.9860   81.9582   10.9832 C.ar    1  UNL1        0.0080
      7 C          62.8863   84.4521   11.7044 C.3     1  UNL1        0.1345
      8 O          63.1176   84.8723   10.2831 O.3     1  UNL1       -0.3800
      9 C          62.7208   85.4891   12.7756 C.3     1  UNL1        0.0565
     10 C          62.4896   85.0688   14.1968 C.3     1  UNL1        0.0096
     11 C          62.4238   83.6117   14.5468 C.3     1  UNL1        0.0263
     12 H          63.1323   85.8408   10.2306 H       1  UNL1        0.2108
     13 C          62.7866   86.9462   12.4256 C.3     1  UNL1        0.1121
     14 C          62.0980   87.6068   11.2682 C.ar    1  UNL1       -0.0002
     15 C          61.2051   87.0671   10.1906 C.ar    1  UNL1       -0.0024
     16 C          60.6525   87.9880    9.1434 C.ar    1  UNL1       -0.0003
     17 C          60.9928   89.4486    9.1739 C.ar    1  UNL1        0.0000
     18 C          61.8857   89.9883   10.2516 C.ar    1  UNL1        0.0012
     19 C          62.4383   89.0674   11.2988 C.ar    1  UNL1        0.0152
     20 C          63.3372   89.3094   12.4750 C.ar    1  UNL1        0.0804
     21 C          64.1031   90.3617   13.2208 C.ar    1  UNL1        0.1177
     22 N          64.7917   89.7010   14.3781 N.ar    1  UNL1       -0.2223
     23 C          64.4514   88.2404   14.3476 C.ar    1  UNL1        0.1788
     24 N          63.5525   87.9984   13.1714 N.ar    1  UNL1       -0.3069
     25 N          63.2513   78.4273    9.1909 N.1     1  UNL1       -0.1908
     26 C          63.0858   79.4642   10.2620 C.1     1  UNL1        0.1004
@<TRIPOS>BOND
     1    25    26    3
     2    26     1    1
     3     1     2   ar
     4     2     3   ar
     5     3     4   ar
     6     4     5   ar
     7     5     6   ar
     8     5     7    1
     9     7     8    1
    10     7     9    1
    11     9    13    1
    12    13    14    1
    13    14    15   ar
    14    15    16   ar
    15    16    17   ar
    16    17    18   ar
    17    18    19   ar
    18    19    20    1
    19    20    21   ar
    20    21    22   ar
    21    22    23   ar
    22    23    24   ar
    23     9    10    1
    24    10    11    1
    25     6     1   ar
    26    13    24    1
    27    11     4    1
    28    19    14   ar
    29    24    20   ar
    30     8    12    1
@<TRIPOS>MOLECULE
*****
 26 30 0 0 0
SMALL
GASTEIGER

@<TRIPOS>ATOM
      1 C          59.7699   88.8589    7.8294 C.ar    1  UNL1        0.0682
      2 C          59.7598   87.3951    8.1570 C.ar    1  UNL1        0.0099
      3 C          60.5851   86.8759    9.2968 C.ar    1  UNL1       -0.0038
      4 C          61.4205   87.8205   10.1091 C.ar    1  UNL1       -0.0239
      5 C          61.4306   89.2842    9.7816 C.ar    1  UNL1        0.0010
      6 C          60.6054   89.8035    8.6417 C.ar    1  UNL1        0.0080
      7 C          62.2661   90.2288   10.5939 C.3     1  UNL1        0.1345
      8 O          62.2762   91.6926   10.2663 O.3     1  UNL1       -0.3800
      9 C          63.0914   89.7096   11.7338 C.3     1  UNL1        0.0565
     10 C          63.0813   88.2459   12.0613 C.3     1  UNL1        0.0096
     11 C          62.2459   87.3013   11.2490 C.3     1  UNL1        0.0263
     12 H          62.8629   92.1579   10.8829 H       1  UNL1        0.2108
     13 C          63.9269   90.6542   12.5461 C.3     1  UNL1        0.1121
     14 C          63.9423   90.7536   14.0427 C.ar    1  UNL1       -0.0002
     15 C          63.1936   90.0060   15.1060 C.ar    1  UNL1       -0.0024
     16 C          63.4211   90.3310   16.5526 C.ar    1  UNL1       -0.0003
     17 C          64.3973   91.4034   16.9359 C.ar    1  UNL1        0.0000
     18 C          65.1460   92.1510   15.8726 C.ar    1  UNL1        0.0012
     19 C          64.9185   91.8260   14.4260 C.ar    1  UNL1        0.0152
     20 C          65.5063   92.3895   13.1662 C.ar    1  UNL1        0.0804
     21 C          66.4730   93.4006   12.6245 C.ar    1  UNL1        0.1177
     22 N          66.4574   93.3012   11.1279 N.ar    1  UNL1       -0.2223
     23 C          65.4813   92.2287   10.7446 C.ar    1  UNL1        0.1788
     24 N          64.8934   91.6653   12.0044 N.ar    1  UNL1       -0.3069
     25 N          58.1193   89.8973    5.5496 N.1     1  UNL1       -0.1908
     26 C          58.9446   89.3781    6.6895 C.1     1  UNL1        0.1004
@<TRIPOS>BOND
     1    25    26    3
     2    26     1    1
     3     1     2   ar
     4     2     3   ar
     5     3     4   ar
     6     4     5   ar
     7     5     6   ar
     8     5     7    1
     9     7     8    1
    10     7     9    1
    11     9    13    1
    12    13    14    1
    13    14    15   ar
    14    15    16   ar
    15    16    17   ar
    16    17    18   ar
    17    18    19   ar
    18    19    20    1
    19    20    21   ar
    20    21    22   ar
    21    22    23   ar
    22    23    24   ar
    23     9    10    1
    24    10    11    1
    25     6     1   ar
    26    13    24    1
    27    11     4    1
    28    19    14   ar
    29    24    20   ar
    30     8    12    1
@<TRIPOS>MOLECULE
*****
 26 30 0 0 0
SMALL
GASTEIGER

@<TRIPOS>ATOM
      1 C          62.9691   84.7649   15.8398 C.ar    1  UNL1        0.0682
      2 C          62.4952   85.0853   17.2264 C.ar    1  UNL1        0.0099
      3 C          62.5442   86.4980   17.7281 C.ar    1  UNL1       -0.0038
      4 C          63.0671   87.5904   16.8430 C.ar    1  UNL1       -0.0239
      5 C          63.5411   87.2700   15.4564 C.ar    1  UNL1        0.0010
      6 C          63.4921   85.8572   14.9548 C.ar    1  UNL1        0.0080
      7 C          64.0640   88.3624   14.5714 C.3     1  UNL1        0.1345
      8 O          64.5380   88.0419   13.1848 O.3     1  UNL1       -0.3800
      9 C          64.1130   89.7752   15.0730 C.3     1  UNL1        0.0565
     10 C          63.6391   90.0956   16.4596 C.3     1  UNL1        0.0096
     11 C          63.1162   89.0032   17.3446 C.3     1  UNL1        0.0263
     12 H          64.8415   88.8547   12.7509 H       1  UNL1        0.2108
     13 C          64.6360   90.8676   14.1880 C.3     1  UNL1        0.1121
     14 C          64.2324   91.1188   12.7653 C.ar    1  UNL1       -0.0002
     15 C          63.2641   90.4192   11.8582 C.ar    1  UNL1       -0.0024
     16 C          63.0647   90.9077   10.4542 C.ar    1  UNL1       -0.0003
     17 C          63.8336   92.0959    9.9571 C.ar    1  UNL1        0.0000
     18 C          64.8019   92.7955   10.8642 C.ar    1  UNL1        0.0012
     19 C          65.0013   92.3070   12.2683 C.ar    1  UNL1        0.0152
     20 C          65.8801   92.7901   13.3838 C.ar    1  UNL1        0.0804
     21 C          66.8985   93.8230   13.7660 C.ar    1  UNL1        0.1177
     22 N          67.3020   93.5717   15.1887 N.ar    1  UNL1       -0.2223
     23 C          66.5331   92.3835   15.6858 C.ar    1  UNL1        0.1788
     24 N          65.6543   91.9005   14.5703 N.ar    1  UNL1       -0.3069
     25 N          62.8711   81.9393   14.8365 N.1     1  UNL1       -0.1908
     26 C          62.9201   83.3520   15.3382 C.1     1  UNL1        0.1004
@<TRIPOS>BOND
     1    25    26    3
     2    26     1    1
     3     1     2   ar
     4     2     3   ar
     5     3     4   ar
     6     4     5   ar
     7     5     6   ar
     8     5     7    1
     9     7     8    1
    10     7     9    1
    11     9    13    1
    12    13    14    1
    13    14    15   ar
    14    15    16   ar
    15    16    17   ar
    16    17    18   ar
    17    18    19   ar
    18    19    20    1
    19    20    21   ar
    20    21    22   ar
    21    22    23   ar
    22    23    24   ar
    23     9    10    1
    24    10    11    1
    25     6     1   ar
    26    13    24    1
    27    11     4    1
    28    19    14   ar
    29    24    20   ar
    30     8    12    1
