@<TRIPOS>MOLECULE
*****
 34 37 0 0 0
SMALL
GASTEIGER

@<TRIPOS>ATOM
      1 C          61.7756   89.8389   11.5617 C.3     1  UNL1        0.1010
      2 N          62.9577   90.7588   11.6425 N.am    1  UNL1       -0.2438
      3 C          63.5452   91.3370   10.3893 C.3     1  UNL1        0.1009
      4 C          64.7272   92.2569   10.4701 C.3     1  UNL1        0.0662
      5 C          65.3218   92.5987   11.8041 C.3     1  UNL1        0.1602
      6 O          64.7343   92.0206   13.0574 O.3     1  UNL1       -0.4374
      7 C          63.5523   91.1006   12.9766 C.2     1  UNL1        0.4051
      8 O          62.9648   90.5225   14.2298 O.2     1  UNL1       -0.2262
      9 C          66.2246   93.3911   10.9058 C.ar    1  UNL1        0.0138
     10 C          66.0668   94.8796   10.8078 C.ar    1  UNL1       -0.0010
     11 C          66.9697   95.6720    9.9094 C.ar    1  UNL1       -0.0002
     12 C          68.0303   94.9759    9.1092 C.ar    1  UNL1       -0.0000
     13 C          68.1882   93.4874    9.2072 C.ar    1  UNL1       -0.0002
     14 C          67.2853   92.6950   10.1055 C.ar    1  UNL1       -0.0010
     15 C          66.2299   93.2157   12.8261 C.3     1  UNL1        0.0762
     16 C          66.3908   92.5730   14.1719 C.3     1  UNL1        0.1411
     17 O          65.7182   93.1689   15.3729 O.3     1  UNL1       -0.3819
     18 H          66.1040   94.0388   15.5613 H       1  UNL1        0.2104
     19 C          61.9801   88.3529   11.5670 C.ar    1  UNL1       -0.0042
     20 C          63.0159   87.7415   12.4632 C.ar    1  UNL1       -0.0027
     21 C          63.2202   86.2555   12.4684 C.ar    1  UNL1       -0.0002
     22 C          62.3888   85.3809   11.5774 C.ar    1  UNL1        0.0014
     23 C          61.3530   85.9923   10.6812 C.ar    1  UNL1       -0.0002
     24 C          61.1486   87.4783   10.6760 C.ar    1  UNL1       -0.0027
     25 C          62.5932   83.8949   11.5827 C.ar    1  UNL1        0.0175
     26 C          63.2911   83.2297   10.4335 C.ar    1  UNL1        0.0064
     27 C          63.4955   81.7437   10.4388 C.ar    1  UNL1        0.0608
     28 C          63.0020   80.9229   11.5932 C.ar    1  UNL1        0.2610
     29 O          63.2064   79.4369   11.5985 O.2     1  UNL1       -0.2670
     30 N          62.3042   81.5881   12.7424 N.ar    1  UNL1       -0.2922
     31 C          61.8107   80.7672   13.8969 C.3     1  UNL1        0.1336
     32 C          62.0998   83.0740   12.7371 C.ar    1  UNL1        0.0783
     33 C          59.2760   89.7862   12.2681 C.3     1  UNL1        0.0021
     34 C          60.3893   90.4050   11.4757 C.3     1  UNL1        0.0245
@<TRIPOS>BOND
     1    33    34    1
     2     1    34    1
     3     1    19    1
     4    19    20   ar
     5    20    21   ar
     6    21    22   ar
     7    22    25    1
     8    25    26   ar
     9    26    27   ar
    10    27    28   ar
    11    28    29    2
    12    28    30   ar
    13    30    31    1
    14    30    32   ar
    15    22    23   ar
    16    23    24   ar
    17     1     2    1
    18     2     3    1
    19     3     4    1
    20     4     5    1
    21     5    15    1
    22    15    16    1
    23    16    17    1
    24     5     9    1
    25     9    10   ar
    26    10    11   ar
    27    11    12   ar
    28    12    13   ar
    29    13    14   ar
    30     5     6    1
    31     6     7    1
    32     7     8    2
    33    24    19   ar
    34     7     2   am
    35    32    25   ar
    36    14     9   ar
    37    17    18    1
@<TRIPOS>MOLECULE
*****
 34 37 0 0 0
SMALL
GASTEIGER

@<TRIPOS>ATOM
      1 C          62.1299   89.5213   11.4950 C.3     1  UNL1        0.1010
      2 N          63.2951   90.3731   11.9032 N.am    1  UNL1       -0.2438
      3 C          63.9347   90.1757   13.2456 C.3     1  UNL1        0.1009
      4 C          65.0999   91.0276   13.6538 C.3     1  UNL1        0.0662
      5 C          65.6256   92.0768   12.7196 C.3     1  UNL1        0.1602
      6 O          64.9861   92.2742   11.3771 O.3     1  UNL1       -0.4374
      7 C          63.8208   91.4224   10.9689 C.2     1  UNL1        0.4051
      8 O          63.1813   91.6198    9.6266 O.2     1  UNL1       -0.2262
      9 C          66.5605   92.2667   13.8772 C.ar    1  UNL1        0.0138
     10 C          66.0203   92.6552   15.2215 C.ar    1  UNL1       -0.0010
     11 C          66.9552   92.8451   16.3791 C.ar    1  UNL1       -0.0002
     12 C          68.4302   92.6465   16.1923 C.ar    1  UNL1       -0.0000
     13 C          68.9703   92.2579   14.8480 C.ar    1  UNL1       -0.0002
     14 C          68.0355   92.0681   13.6903 C.ar    1  UNL1       -0.0010
     15 C          66.4760   93.1920   12.1874 C.3     1  UNL1        0.0762
     16 C          66.7614   93.2818   10.7176 C.3     1  UNL1        0.1411
     17 O          67.5613   92.2077   10.0419 O.3     1  UNL1       -0.3819
     18 H          68.4688   92.2167   10.3843 H       1  UNL1        0.2104
     19 C          62.2488   88.0262   11.5198 C.ar    1  UNL1       -0.0042
     20 C          61.4889   87.1969   10.5274 C.ar    1  UNL1       -0.0027
     21 C          61.6077   85.7018   10.5522 C.ar    1  UNL1       -0.0002
     22 C          62.4865   85.0361   11.5693 C.ar    1  UNL1        0.0014
     23 C          63.2464   85.8654   12.5617 C.ar    1  UNL1       -0.0002
     24 C          63.1275   87.3604   12.5369 C.ar    1  UNL1       -0.0027
     25 C          62.6054   83.5410   11.5941 C.ar    1  UNL1        0.0175
     26 C          63.2007   82.8164   10.4234 C.ar    1  UNL1        0.0064
     27 C          63.3195   81.3213   10.4481 C.ar    1  UNL1        0.0608
     28 C          62.8430   80.5508   11.6437 C.ar    1  UNL1        0.2610
     29 O          62.9619   79.0557   11.6685 O.2     1  UNL1       -0.2670
     30 N          62.2477   81.2754   12.8144 N.ar    1  UNL1       -0.2922
     31 C          61.7712   80.5049   14.0099 C.3     1  UNL1        0.1336
     32 C          62.1289   82.7704   12.7896 C.ar    1  UNL1        0.0783
     33 C          59.6318   90.0802   11.9390 C.3     1  UNL1        0.0021
     34 C          60.8459   90.1645   11.0620 C.3     1  UNL1        0.0245
@<TRIPOS>BOND
     1    33    34    1
     2     1    34    1
     3     1    19    1
     4    19    20   ar
     5    20    21   ar
     6    21    22   ar
     7    22    25    1
     8    25    26   ar
     9    26    27   ar
    10    27    28   ar
    11    28    29    2
    12    28    30   ar
    13    30    31    1
    14    30    32   ar
    15    22    23   ar
    16    23    24   ar
    17     1     2    1
    18     2     3    1
    19     3     4    1
    20     4     5    1
    21     5    15    1
    22    15    16    1
    23    16    17    1
    24     5     9    1
    25     9    10   ar
    26    10    11   ar
    27    11    12   ar
    28    12    13   ar
    29    13    14   ar
    30     5     6    1
    31     6     7    1
    32     7     8    2
    33    24    19   ar
    34     7     2   am
    35    32    25   ar
    36    14     9   ar
    37    17    18    1
@<TRIPOS>MOLECULE
*****
 34 37 0 0 0
SMALL
GASTEIGER

@<TRIPOS>ATOM
      1 C          63.8097   89.3418   15.1388 C.3     1  UNL1        0.1010
      2 N          63.7225   87.8778   14.8240 N.am    1  UNL1       -0.2438
      3 C          63.8570   87.4062   13.4064 C.3     1  UNL1        0.1009
      4 C          63.7698   85.9422   13.0916 C.3     1  UNL1        0.0662
      5 C          63.5482   84.9499   14.1943 C.3     1  UNL1        0.1602
      6 O          63.4137   85.4214   15.6119 O.3     1  UNL1       -0.4374
      7 C          63.5009   86.8854   15.9268 C.2     1  UNL1        0.4051
      8 O          63.3665   87.3570   17.3443 O.2     1  UNL1       -0.2262
      9 C          63.6135   84.0216   13.0178 C.ar    1  UNL1        0.0138
     10 C          64.5165   82.8245   13.0562 C.ar    1  UNL1       -0.0010
     11 C          64.5819   81.8963   11.8797 C.ar    1  UNL1       -0.0002
     12 C          63.7442   82.1653   10.6648 C.ar    1  UNL1       -0.0000
     13 C          62.8413   83.3624   10.6263 C.ar    1  UNL1       -0.0002
     14 C          62.7759   84.2906   11.8029 C.ar    1  UNL1       -0.0010
     15 C          63.3492   83.6351   14.8884 C.3     1  UNL1        0.0762
     16 C          61.9838   83.0171   14.9474 C.3     1  UNL1        0.1411
     17 O          61.8299   81.5278   14.8559 O.3     1  UNL1       -0.3819
     18 H          62.1059   81.2277   13.9757 H       1  UNL1        0.2104
     19 C          64.3941   90.2913   14.1352 C.ar    1  UNL1       -0.0042
     20 C          63.6134   90.6603   12.9087 C.ar    1  UNL1       -0.0027
     21 C          64.1977   91.6097   11.9052 C.ar    1  UNL1       -0.0002
     22 C          65.5628   92.1902   12.1282 C.ar    1  UNL1        0.0014
     23 C          66.3435   91.8212   13.3547 C.ar    1  UNL1       -0.0002
     24 C          65.7591   90.8718   14.3582 C.ar    1  UNL1       -0.0027
     25 C          66.1471   93.1396   11.1246 C.ar    1  UNL1        0.0175
     26 C          67.2942   92.7057   10.2610 C.ar    1  UNL1        0.0064
     27 C          67.8785   93.6552    9.2574 C.ar    1  UNL1        0.0608
     28 C          67.3158   95.0386    9.1175 C.ar    1  UNL1        0.2610
     29 O          67.9001   95.9880    8.1140 O.2     1  UNL1       -0.2670
     30 N          66.1687   95.4725    9.9813 N.ar    1  UNL1       -0.2922
     31 C          65.6059   96.8559    9.8414 C.3     1  UNL1        0.1336
     32 C          65.5844   94.5230   10.9848 C.ar    1  UNL1        0.0783
     33 C          63.5434   91.2886   16.8386 C.3     1  UNL1        0.0021
     34 C          63.3126   89.8564   16.4572 C.3     1  UNL1        0.0245
@<TRIPOS>BOND
     1    33    34    1
     2     1    34    1
     3     1    19    1
     4    19    20   ar
     5    20    21   ar
     6    21    22   ar
     7    22    25    1
     8    25    26   ar
     9    26    27   ar
    10    27    28   ar
    11    28    29    2
    12    28    30   ar
    13    30    31    1
    14    30    32   ar
    15    22    23   ar
    16    23    24   ar
    17     1     2    1
    18     2     3    1
    19     3     4    1
    20     4     5    1
    21     5    15    1
    22    15    16    1
    23    16    17    1
    24     5     9    1
    25     9    10   ar
    26    10    11   ar
    27    11    12   ar
    28    12    13   ar
    29    13    14   ar
    30     5     6    1
    31     6     7    1
    32     7     8    2
    33    24    19   ar
    34     7     2   am
    35    32    25   ar
    36    14     9   ar
    37    17    18    1
@<TRIPOS>MOLECULE
*****
 34 37 0 0 0
SMALL
GASTEIGER

@<TRIPOS>ATOM
      1 C          63.8115   89.3611   15.1055 C.3     1  UNL1        0.1010
      2 N          64.5348   90.5166   14.4796 N.am    1  UNL1       -0.2438
      3 C          64.7563   90.5482   12.9965 C.3     1  UNL1        0.1009
      4 C          65.4796   91.7037   12.3706 C.3     1  UNL1        0.0662
      5 C          65.9814   92.8276   13.2279 C.3     1  UNL1        0.1602
      6 O          65.7599   92.7960   14.7112 O.3     1  UNL1       -0.4374
      7 C          65.0366   91.6405   15.3371 C.2     1  UNL1        0.4051
      8 O          64.8151   91.6089   16.8202 O.2     1  UNL1       -0.2262
      9 C          66.4315   93.3074   11.8799 C.ar    1  UNL1        0.0138
     10 C          66.0577   94.6819   11.4098 C.ar    1  UNL1       -0.0010
     11 C          66.5078   95.1617   10.0617 C.ar    1  UNL1       -0.0002
     12 C          67.3316   94.2669    9.1838 C.ar    1  UNL1       -0.0000
     13 C          67.7054   92.8924    9.6539 C.ar    1  UNL1       -0.0002
     14 C          67.2553   92.4126   11.0020 C.ar    1  UNL1       -0.0010
     15 C          66.6395   94.1181   13.6171 C.3     1  UNL1        0.0762
     16 C          67.6081   94.1507   14.7620 C.3     1  UNL1        0.1411
     17 O          68.7209   93.1472   14.8318 O.3     1  UNL1       -0.3819
     18 H          68.3490   92.2604   14.9590 H       1  UNL1        0.2104
     19 C          63.7303   88.0480   14.3849 C.ar    1  UNL1       -0.0042
     20 C          64.2900   86.8089   15.0185 C.ar    1  UNL1       -0.0027
     21 C          64.2089   85.4959   14.2978 C.ar    1  UNL1       -0.0002
     22 C          63.5680   85.4219   12.9437 C.ar    1  UNL1        0.0014
     23 C          63.0083   86.6610   12.3101 C.ar    1  UNL1       -0.0002
     24 C          63.0895   87.9740   13.0307 C.ar    1  UNL1       -0.0027
     25 C          63.4868   84.1088   12.2231 C.ar    1  UNL1        0.0175
     26 C          63.8937   84.0176   10.7822 C.ar    1  UNL1        0.0064
     27 C          63.8126   82.7045   10.0616 C.ar    1  UNL1        0.0608
     28 C          63.3245   81.4826   10.7819 C.ar    1  UNL1        0.2610
     29 O          63.2433   80.1695   10.0614 O.2     1  UNL1       -0.2670
     30 N          62.9175   81.5739   12.2228 N.ar    1  UNL1       -0.2922
     31 C          62.4294   80.3520   12.9431 C.3     1  UNL1        0.1336
     32 C          62.9987   82.8870   12.9434 C.ar    1  UNL1        0.0783
     33 C          62.9121   88.3126   17.3060 C.3     1  UNL1        0.0021
     34 C          63.1694   89.5187   16.4519 C.3     1  UNL1        0.0245
@<TRIPOS>BOND
     1    33    34    1
     2     1    34    1
     3     1    19    1
     4    19    20   ar
     5    20    21   ar
     6    21    22   ar
     7    22    25    1
     8    25    26   ar
     9    26    27   ar
    10    27    28   ar
    11    28    29    2
    12    28    30   ar
    13    30    31    1
    14    30    32   ar
    15    22    23   ar
    16    23    24   ar
    17     1     2    1
    18     2     3    1
    19     3     4    1
    20     4     5    1
    21     5    15    1
    22    15    16    1
    23    16    17    1
    24     5     9    1
    25     9    10   ar
    26    10    11   ar
    27    11    12   ar
    28    12    13   ar
    29    13    14   ar
    30     5     6    1
    31     6     7    1
    32     7     8    2
    33    24    19   ar
    34     7     2   am
    35    32    25   ar
    36    14     9   ar
    37    17    18    1
