@<TRIPOS>MOLECULE
*****
 29 31 0 0 0
SMALL
GASTEIGER

@<TRIPOS>ATOM
      1 C          62.7455   85.9619   12.2963 C.3     1  UNL1        0.1232
      2 S          61.8044   86.0902   11.1353 S.3     1  UNL1       -0.1046
      3 C          61.3762   87.3320   10.4111 C.ar    1  UNL1        0.0393
      4 C          60.4171   87.0164    9.3018 C.ar    1  UNL1        0.0074
      5 C          59.8653   88.1212    8.4505 C.ar    1  UNL1        0.0006
      6 C          60.2725   89.5417    8.7084 C.ar    1  UNL1        0.0013
      7 C          61.2316   89.8573    9.8177 C.ar    1  UNL1        0.0154
      8 C          61.7834   88.7525   10.6690 C.ar    1  UNL1        0.0596
      9 N          62.7194   89.2818   11.7148 N.am    1  UNL1       -0.2538
     10 C          63.4793   88.5216   12.7611 C.2     1  UNL1        0.2709
     11 O          64.3416   89.3480   13.6684 O.2     1  UNL1       -0.2706
     12 C          63.4909   87.0441   13.0198 C.3     1  UNL1        0.2585
     13 C          63.4221   81.7781   13.8086 C.ar    1  UNL1        0.1387
     14 C          62.3193   82.6150   14.3858 C.ar    1  UNL1        0.0366
     15 C          62.0937   84.0097   13.8818 C.ar    1  UNL1       -0.0002
     16 C          62.9710   84.5674   12.8003 C.ar    1  UNL1       -0.0080
     17 C          64.0739   83.7304   12.2231 C.ar    1  UNL1       -0.0002
     18 C          64.2994   82.3357   12.7271 C.ar    1  UNL1        0.0366
     19 C          62.7177   79.2792   13.9055 C.3     1  UNL1        0.2525
     20 O          63.6477   80.3835   14.3127 O.3     1  UNL1       -0.4714
     21 C          62.9223   90.7680   11.7144 C.3     1  UNL1        0.1156
     22 C          63.9330   91.3869   10.7947 C.3     1  UNL1        0.0943
     23 N          65.0110   92.2697   11.3502 N.3     1  UNL1       -0.2688
     24 C          65.2573   92.3125   12.8292 C.3     1  UNL1        0.0897
     25 C          65.8425   93.1096   10.4267 C.3     1  UNL1        0.0897
     26 O          64.3633   86.5884   14.1517 O.3     1  UNL1       -0.4415
     27 C          63.8543   86.6472   15.5615 C.2     1  UNL1        0.3179
     28 C          63.8549   85.4111   16.4112 C.3     1  UNL1        0.1212
     29 O          63.3448   87.9421   16.1216 O.2     1  UNL1       -0.2501
@<TRIPOS>BOND
     1    19    20    1
     2    20    13    1
     3    13    14   ar
     4    14    15   ar
     5    15    16   ar
     6     1    16    1
     7     1     2    1
     8     2     3    1
     9     3     4   ar
    10     4     5   ar
    11     5     6   ar
    12     6     7   ar
    13     7     8   ar
    14     8     9    1
    15     9    21    1
    16    21    22    1
    17    22    23    1
    18    23    24    1
    19    23    25    1
    20     9    10   am
    21    10    11    2
    22    10    12    1
    23    12    26    1
    24    26    27    1
    25    27    28    1
    26    27    29    2
    27    16    17   ar
    28    17    18   ar
    29    18    13   ar
    30    12     1    1
    31     8     3   ar
@<TRIPOS>MOLECULE
*****
 29 31 0 0 0
SMALL
GASTEIGER

@<TRIPOS>ATOM
      1 C          62.9283   85.1073   11.9619 C.3     1  UNL1        0.1232
      2 S          62.1364   85.8556   10.9309 S.3     1  UNL1       -0.1046
      3 C          61.9679   87.3379   10.7753 C.ar    1  UNL1        0.0393
      4 C          61.0884   87.6699    9.6065 C.ar    1  UNL1        0.0074
      5 C          60.7909   89.1021    9.2746 C.ar    1  UNL1        0.0006
      6 C          61.3729   90.2024   10.1116 C.ar    1  UNL1        0.0013
      7 C          62.2523   89.8705   11.2805 C.ar    1  UNL1        0.0154
      8 C          62.5498   88.4383   11.6124 C.ar    1  UNL1        0.0596
      9 N          63.4440   88.3279   12.8117 N.am    1  UNL1       -0.2538
     10 C          63.9770   87.0901   13.4702 C.2     1  UNL1        0.2709
     11 O          64.8557   87.3153   14.6648 O.2     1  UNL1       -0.2706
     12 C          63.7475   85.6568   13.0920 C.3     1  UNL1        0.2585
     13 C          62.8344   80.6214   11.6193 C.ar    1  UNL1        0.1387
     14 C          62.1168   81.3027   12.7466 C.ar    1  UNL1        0.0366
     15 C          62.1480   82.7980   12.8609 C.ar    1  UNL1       -0.0002
     16 C          62.8970   83.6121   11.8477 C.ar    1  UNL1       -0.0080
     17 C          63.6147   82.9308   10.7204 C.ar    1  UNL1       -0.0002
     18 C          63.5834   81.4354   10.6062 C.ar    1  UNL1        0.0366
     19 C          62.7906   78.4772   10.1528 C.3     1  UNL1        0.2525
     20 O          62.8031   79.1261   11.5052 O.3     1  UNL1       -0.4714
     21 C          63.8602   89.6273   13.4349 C.3     1  UNL1        0.1156
     22 C          62.9911   90.2738   14.4727 C.3     1  UNL1        0.0943
     23 N          63.4360   90.3135   15.9046 N.3     1  UNL1       -0.2688
     24 C          63.0899   89.1840   16.8290 C.3     1  UNL1        0.0897
     25 C          64.2270   91.4824   16.4121 C.3     1  UNL1        0.0897
     26 O          64.4271   84.6382   13.9584 O.3     1  UNL1       -0.4415
     27 C          63.7265   84.0959   15.1688 C.2     1  UNL1        0.3179
     28 C          62.6748   84.9151   15.8565 C.3     1  UNL1        0.1212
     29 O          64.0776   82.7345   15.6915 O.2     1  UNL1       -0.2501
@<TRIPOS>BOND
     1    19    20    1
     2    20    13    1
     3    13    14   ar
     4    14    15   ar
     5    15    16   ar
     6     1    16    1
     7     1     2    1
     8     2     3    1
     9     3     4   ar
    10     4     5   ar
    11     5     6   ar
    12     6     7   ar
    13     7     8   ar
    14     8     9    1
    15     9    21    1
    16    21    22    1
    17    22    23    1
    18    23    24    1
    19    23    25    1
    20     9    10   am
    21    10    11    2
    22    10    12    1
    23    12    26    1
    24    26    27    1
    25    27    28    1
    26    27    29    2
    27    16    17   ar
    28    17    18   ar
    29    18    13   ar
    30    12     1    1
    31     8     3   ar
@<TRIPOS>MOLECULE
*****
 29 31 0 0 0
SMALL
GASTEIGER

@<TRIPOS>ATOM
      1 C          64.0311   89.0483   13.5761 C.3     1  UNL1        0.1232
      2 S          64.3092   87.6567   14.0620 S.3     1  UNL1       -0.1046
      3 C          63.7597   86.3592   13.5477 C.ar    1  UNL1        0.0393
      4 C          64.2980   85.1915   14.3201 C.ar    1  UNL1        0.0074
      5 C          63.8729   83.7975   13.9653 C.ar    1  UNL1        0.0006
      6 C          62.9096   83.5711   12.8380 C.ar    1  UNL1        0.0013
      7 C          62.3713   84.7388   12.0656 C.ar    1  UNL1        0.0154
      8 C          62.7963   86.1328   12.4204 C.ar    1  UNL1        0.0596
      9 N          62.1446   87.1481   11.5291 N.am    1  UNL1       -0.2538
     10 C          62.2952   88.6405   11.5448 C.2     1  UNL1        0.2709
     11 O          61.5013   89.3857   10.5132 O.2     1  UNL1       -0.2706
     12 C          63.1348   89.4861   12.4558 C.3     1  UNL1        0.2585
     13 C          66.1684   92.3457   15.7691 C.ar    1  UNL1        0.1387
     14 C          66.8333   91.6607   14.6121 C.ar    1  UNL1        0.0366
     15 C          66.1209   90.5616   13.8811 C.ar    1  UNL1       -0.0002
     16 C          64.7435   90.1474   14.3071 C.ar    1  UNL1       -0.0080
     17 C          64.0786   90.8324   15.4641 C.ar    1  UNL1       -0.0002
     18 C          64.7910   91.9316   16.1952 C.ar    1  UNL1        0.0366
     19 C          68.2696   93.8391   16.0929 C.3     1  UNL1        0.2525
     20 O          66.8807   93.4448   16.5001 O.3     1  UNL1       -0.4714
     21 C          61.2200   86.5983   10.4837 C.3     1  UNL1        0.1156
     22 C          61.6773   86.4915    9.0591 C.3     1  UNL1        0.0943
     23 N          60.7055   86.0959    7.9871 N.3     1  UNL1       -0.2688
     24 C          59.3304   86.6947    7.9634 C.3     1  UNL1        0.0897
     25 C          61.1087   85.1016    6.9390 C.3     1  UNL1        0.0897
     26 O          63.0694   90.9652   12.2147 O.3     1  UNL1       -0.4415
     27 C          63.7873   91.5665   11.0430 C.2     1  UNL1        0.3179
     28 C          65.1099   92.2456   11.2417 C.3     1  UNL1        0.1212
     29 O          63.1826   91.4887    9.6725 O.2     1  UNL1       -0.2501
@<TRIPOS>BOND
     1    19    20    1
     2    20    13    1
     3    13    14   ar
     4    14    15   ar
     5    15    16   ar
     6     1    16    1
     7     1     2    1
     8     2     3    1
     9     3     4   ar
    10     4     5   ar
    11     5     6   ar
    12     6     7   ar
    13     7     8   ar
    14     8     9    1
    15     9    21    1
    16    21    22    1
    17    22    23    1
    18    23    24    1
    19    23    25    1
    20     9    10   am
    21    10    11    2
    22    10    12    1
    23    12    26    1
    24    26    27    1
    25    27    28    1
    26    27    29    2
    27    16    17   ar
    28    17    18   ar
    29    18    13   ar
    30    12     1    1
    31     8     3   ar
@<TRIPOS>MOLECULE
*****
 29 31 0 0 0
SMALL
GASTEIGER

@<TRIPOS>ATOM
      1 C          62.5564   86.6109   10.8327 C.3     1  UNL1        0.1232
      2 S          62.9105   85.5800   11.8632 S.3     1  UNL1       -0.1046
      3 C          63.3859   85.7890   13.2704 C.ar    1  UNL1        0.0393
      4 C          63.6283   84.4827   13.9667 C.ar    1  UNL1        0.0074
      5 C          64.1094   84.4680   15.3873 C.ar    1  UNL1        0.0006
      6 C          64.3480   85.7596   16.1118 C.ar    1  UNL1        0.0013
      7 C          64.1056   87.0659   15.4155 C.ar    1  UNL1        0.0154
      8 C          63.6245   87.0806   13.9949 C.ar    1  UNL1        0.0596
      9 N          63.4467   88.4822   13.4909 N.am    1  UNL1       -0.2538
     10 C          62.9864   88.9384   12.1382 C.2     1  UNL1        0.2709
     11 O          62.9125   90.4237   11.9425 O.2     1  UNL1       -0.2706
     12 C          62.5902   88.1056   10.9552 C.3     1  UNL1        0.2585
     13 C          61.2154   85.0080    6.8475 C.ar    1  UNL1        0.1387
     14 C          60.2292   85.6807    7.7556 C.ar    1  UNL1        0.0366
     15 C          60.6761   86.2150    9.0841 C.ar    1  UNL1       -0.0002
     16 C          62.1094   86.0766    9.5044 C.ar    1  UNL1       -0.0080
     17 C          63.0957   85.4040    8.5962 C.ar    1  UNL1       -0.0002
     18 C          62.6487   84.8696    7.2677 C.ar    1  UNL1        0.0366
     19 C          61.7848   84.0460    4.5022 C.3     1  UNL1        0.2525
     20 O          60.7684   84.4738    5.5191 O.3     1  UNL1       -0.4714
     21 C          63.7723   89.5717   14.4692 C.3     1  UNL1        0.1156
     22 C          64.9805   90.4348   14.2559 C.3     1  UNL1        0.0943
     23 N          65.1834   91.6615   15.0950 N.3     1  UNL1       -0.2688
     24 C          66.2297   92.6664   14.7134 C.3     1  UNL1        0.0897
     25 C          64.3402   91.8833   16.3154 C.3     1  UNL1        0.0897
     26 O          62.1725   88.8682    9.7329 O.3     1  UNL1       -0.4415
     27 C          60.7608   89.3576    9.6003 C.2     1  UNL1        0.3179
     28 C          60.1101   89.4136    8.2500 C.3     1  UNL1        0.1212
     29 O          59.9998   89.7912   10.8181 O.2     1  UNL1       -0.2501
@<TRIPOS>BOND
     1    19    20    1
     2    20    13    1
     3    13    14   ar
     4    14    15   ar
     5    15    16   ar
     6     1    16    1
     7     1     2    1
     8     2     3    1
     9     3     4   ar
    10     4     5   ar
    11     5     6   ar
    12     6     7   ar
    13     7     8   ar
    14     8     9    1
    15     9    21    1
    16    21    22    1
    17    22    23    1
    18    23    24    1
    19    23    25    1
    20     9    10   am
    21    10    11    2
    22    10    12    1
    23    12    26    1
    24    26    27    1
    25    27    28    1
    26    27    29    2
    27    16    17   ar
    28    17    18   ar
    29    18    13   ar
    30    12     1    1
    31     8     3   ar
@<TRIPOS>MOLECULE
*****
 29 31 0 0 0
SMALL
GASTEIGER

@<TRIPOS>ATOM
      1 C          61.7776   87.0226   10.6075 C.3     1  UNL1        0.1232
      2 S          62.0585   85.5507   10.5382 S.3     1  UNL1       -0.1046
      3 C          62.8570   84.7053   11.4856 C.ar    1  UNL1        0.0393
      4 C          62.8904   83.2716   11.0459 C.ar    1  UNL1        0.0074
      5 C          63.6386   82.2556   11.8569 C.ar    1  UNL1        0.0006
      6 C          64.3534   82.6733   13.1077 C.ar    1  UNL1        0.0013
      7 C          64.3201   84.1069   13.5475 C.ar    1  UNL1        0.0154
      8 C          63.5719   85.1229   12.7365 C.ar    1  UNL1        0.0596
      9 N          63.6647   86.4892   13.3487 N.am    1  UNL1       -0.2538
     10 C          63.0657   87.7752   12.8615 C.2     1  UNL1        0.2709
     11 O          63.3432   88.9835   13.7057 O.2     1  UNL1       -0.2706
     12 C          62.2259   88.0125   11.6415 C.3     1  UNL1        0.2585
     13 C          59.2569   88.6885    7.2728 C.ar    1  UNL1        0.1387
     14 C          60.3009   89.5462    7.9241 C.ar    1  UNL1        0.0366
     15 C          61.1412   88.9910    9.0358 C.ar    1  UNL1       -0.0002
     16 C          60.9374   87.5779    9.4959 C.ar    1  UNL1       -0.0080
     17 C          59.8934   86.7201    8.8446 C.ar    1  UNL1       -0.0002
     18 C          59.0531   87.2754    7.7330 C.ar    1  UNL1        0.0366
     19 C          58.6662   90.6335    5.6547 C.3     1  UNL1        0.2525
     20 O          58.4167   89.2438    6.1612 O.3     1  UNL1       -0.4714
     21 C          64.4620   86.5816   14.6159 C.3     1  UNL1        0.1156
     22 C          63.8948   86.0514   15.8994 C.3     1  UNL1        0.0943
     23 N          63.1950   86.9777   16.8493 N.3     1  UNL1       -0.2688
     24 C          63.2395   88.4596   16.6211 C.3     1  UNL1        0.0897
     25 C          62.4509   86.4222   18.0272 C.3     1  UNL1        0.0897
     26 O          61.7746   89.4269   11.4271 O.3     1  UNL1       -0.4415
     27 C          60.4791   89.8985   12.0179 C.2     1  UNL1        0.3179
     28 C          59.6069   90.8482   11.2515 C.3     1  UNL1        0.1212
     29 O          60.0556   89.4204   13.3753 O.2     1  UNL1       -0.2501
@<TRIPOS>BOND
     1    19    20    1
     2    20    13    1
     3    13    14   ar
     4    14    15   ar
     5    15    16   ar
     6     1    16    1
     7     1     2    1
     8     2     3    1
     9     3     4   ar
    10     4     5   ar
    11     5     6   ar
    12     6     7   ar
    13     7     8   ar
    14     8     9    1
    15     9    21    1
    16    21    22    1
    17    22    23    1
    18    23    24    1
    19    23    25    1
    20     9    10   am
    21    10    11    2
    22    10    12    1
    23    12    26    1
    24    26    27    1
    25    27    28    1
    26    27    29    2
    27    16    17   ar
    28    17    18   ar
    29    18    13   ar
    30    12     1    1
    31     8     3   ar
@<TRIPOS>MOLECULE
*****
 29 31 0 0 0
SMALL
GASTEIGER

@<TRIPOS>ATOM
      1 C          62.7028   86.2826   11.1068 C.3     1  UNL1        0.1232
      2 S          62.8975   87.7507   11.3451 S.3     1  UNL1       -0.1046
      3 C          63.3806   88.4409   12.5862 C.ar    1  UNL1        0.0393
      4 C          63.4303   89.9286   12.4019 C.ar    1  UNL1        0.0074
      5 C          63.8877   90.8088   13.5271 C.ar    1  UNL1        0.0006
      6 C          64.2953   90.2013   14.8365 C.ar    1  UNL1        0.0013
      7 C          64.2456   88.7135   15.0208 C.ar    1  UNL1        0.0154
      8 C          63.7882   87.8333   13.8957 C.ar    1  UNL1        0.0596
      9 N          63.8134   86.3855   14.2874 N.am    1  UNL1       -0.2538
     10 C          63.4373   85.1878   13.4665 C.2     1  UNL1        0.2709
     11 O          63.5734   83.8604   14.1515 O.2     1  UNL1       -0.2706
     12 C          62.9430   85.1420   12.0509 C.3     1  UNL1        0.2585
     13 C          61.1991   85.1504    7.0194 C.ar    1  UNL1        0.1387
     14 C          62.6074   84.8220    7.4180 C.ar    1  UNL1        0.0366
     15 C          63.1087   85.1994    8.7805 C.ar    1  UNL1       -0.0002
     16 C          62.2016   85.9052    9.7444 C.ar    1  UNL1       -0.0080
     17 C          60.7933   86.2336    9.3458 C.ar    1  UNL1       -0.0002
     18 C          60.2920   85.8563    7.9833 C.ar    1  UNL1        0.0366
     19 C          61.6006   84.0550    4.6980 C.3     1  UNL1        0.2525
     20 O          60.6979   84.7730    5.6570 O.3     1  UNL1       -0.4714
     21 C          64.2760   86.0974   15.6849 C.3     1  UNL1        0.1156
     22 C          63.3427   85.4517   16.6658 C.3     1  UNL1        0.0943
     23 N          62.2923   86.2724   17.3536 N.3     1  UNL1       -0.2688
     24 C          62.5891   86.9140   18.6766 C.3     1  UNL1        0.0897
     25 C          60.9454   86.4516   16.7185 C.3     1  UNL1        0.0897
     26 O          62.6502   83.7748   11.5077 O.3     1  UNL1       -0.4415
     27 C          63.7431   82.7507   11.4253 C.2     1  UNL1        0.3179
     28 C          63.5772   81.4210   12.0993 C.3     1  UNL1        0.1212
     29 O          65.0018   83.0563   10.6689 O.2     1  UNL1       -0.2501
@<TRIPOS>BOND
     1    19    20    1
     2    20    13    1
     3    13    14   ar
     4    14    15   ar
     5    15    16   ar
     6     1    16    1
     7     1     2    1
     8     2     3    1
     9     3     4   ar
    10     4     5   ar
    11     5     6   ar
    12     6     7   ar
    13     7     8   ar
    14     8     9    1
    15     9    21    1
    16    21    22    1
    17    22    23    1
    18    23    24    1
    19    23    25    1
    20     9    10   am
    21    10    11    2
    22    10    12    1
    23    12    26    1
    24    26    27    1
    25    27    28    1
    26    27    29    2
    27    16    17   ar
    28    17    18   ar
    29    18    13   ar
    30    12     1    1
    31     8     3   ar
@<TRIPOS>MOLECULE
*****
 29 31 0 0 0
SMALL
GASTEIGER

@<TRIPOS>ATOM
      1 C          64.4407   89.3138   13.9880 C.3     1  UNL1        0.1232
      2 S          65.3699   90.0766   14.8851 S.3     1  UNL1       -0.1046
      3 C          65.9641   91.4379   14.6761 C.ar    1  UNL1        0.0393
      4 C          66.8464   91.8327   15.8230 C.ar    1  UNL1        0.0074
      5 C          67.5405   93.1624   15.8122 C.ar    1  UNL1        0.0006
      6 C          67.3523   94.0973   14.6543 C.ar    1  UNL1        0.0013
      7 C          66.4700   93.7024   13.5074 C.ar    1  UNL1        0.0154
      8 C          65.7759   92.3728   13.5182 C.ar    1  UNL1        0.0596
      9 N          64.9469   92.1771   12.2835 N.am    1  UNL1       -0.2538
     10 C          64.1014   90.9984   11.9016 C.2     1  UNL1        0.2709
     11 O          63.3868   91.1085   10.5874 O.2     1  UNL1       -0.2706
     12 C          63.8762   89.7241   12.6602 C.3     1  UNL1        0.2585
     13 C          63.1798   85.2588   15.4768 C.ar    1  UNL1        0.1387
     14 C          63.1746   86.4346   16.4082 C.ar    1  UNL1        0.0366
     15 C          63.5949   87.7864   15.9120 C.ar    1  UNL1       -0.0002
     16 C          64.0204   87.9622   14.4843 C.ar    1  UNL1       -0.0080
     17 C          64.0255   86.7864   13.5530 C.ar    1  UNL1       -0.0002
     18 C          63.6052   85.4346   14.0492 C.ar    1  UNL1        0.0366
     19 C          62.3628   82.8397   14.9968 C.3     1  UNL1        0.2525
     20 O          62.7595   83.9072   15.9731 O.3     1  UNL1       -0.4714
     21 C          64.9659   93.3101   11.3006 C.3     1  UNL1        0.1156
     22 C          66.0059   93.3486   10.2203 C.3     1  UNL1        0.0943
     23 N          66.7444   94.6227    9.9353 N.3     1  UNL1       -0.2688
     24 C          66.3045   95.9044   10.5784 C.3     1  UNL1        0.0897
     25 C          67.9228   94.6150    9.0073 C.3     1  UNL1        0.0897
     26 O          62.9660   88.7285   12.0043 O.3     1  UNL1       -0.4415
     27 C          61.5239   89.0696   11.7724 C.2     1  UNL1        0.3179
     28 C          60.9127   88.8634   10.4182 C.3     1  UNL1        0.1212
     29 O          60.6928   89.6170   12.8948 O.2     1  UNL1       -0.2501
@<TRIPOS>BOND
     1    19    20    1
     2    20    13    1
     3    13    14   ar
     4    14    15   ar
     5    15    16   ar
     6     1    16    1
     7     1     2    1
     8     2     3    1
     9     3     4   ar
    10     4     5   ar
    11     5     6   ar
    12     6     7   ar
    13     7     8   ar
    14     8     9    1
    15     9    21    1
    16    21    22    1
    17    22    23    1
    18    23    24    1
    19    23    25    1
    20     9    10   am
    21    10    11    2
    22    10    12    1
    23    12    26    1
    24    26    27    1
    25    27    28    1
    26    27    29    2
    27    16    17   ar
    28    17    18   ar
    29    18    13   ar
    30    12     1    1
    31     8     3   ar
@<TRIPOS>MOLECULE
*****
 29 31 0 0 0
SMALL
GASTEIGER

@<TRIPOS>ATOM
      1 C          63.1835   85.9440   12.6834 C.3     1  UNL1        0.1232
      2 S          63.7471   86.9183   13.6749 S.3     1  UNL1       -0.1046
      3 C          63.8061   88.4145   13.5862 C.ar    1  UNL1        0.0393
      4 C          64.4550   89.0104   14.8002 C.ar    1  UNL1        0.0074
      5 C          64.6136   90.4977   14.9120 C.ar    1  UNL1        0.0006
      6 C          64.1234   91.3892   13.8097 C.ar    1  UNL1        0.0013
      7 C          63.4745   90.7934   12.5957 C.ar    1  UNL1        0.0154
      8 C          63.3159   89.3060   12.4839 C.ar    1  UNL1        0.0596
      9 N          62.6457   88.9215   11.1982 N.am    1  UNL1       -0.2538
     10 C          62.3001   87.5505   10.6972 C.2     1  UNL1        0.2709
     11 O          61.6262   87.4976    9.3582 O.2     1  UNL1       -0.2706
     12 C          62.5395   86.2254   11.3582 C.3     1  UNL1        0.2585
     13 C          63.4612   81.6032   13.8368 C.ar    1  UNL1        0.1387
     14 C          64.5324   82.2243   12.9902 C.ar    1  UNL1        0.0366
     15 C          64.4399   83.6712   12.6056 C.ar    1  UNL1       -0.0002
     16 C          63.2761   84.4971   13.0679 C.ar    1  UNL1       -0.0080
     17 C          62.2049   83.8761   13.9145 C.ar    1  UNL1       -0.0002
     18 C          62.2974   82.4291   14.2991 C.ar    1  UNL1        0.0366
     19 C          62.5786   79.1663   13.6565 C.3     1  UNL1        0.2525
     20 O          63.5537   80.1564   14.2213 O.3     1  UNL1       -0.4714
     21 C          62.2715   90.0583   10.2940 C.3     1  UNL1        0.1156
     22 C          60.8285   90.3272    9.9849 C.3     1  UNL1        0.0943
     23 N          59.7876   90.1499   11.0503 N.3     1  UNL1       -0.2688
     24 C          59.5197   88.7874   11.6177 C.3     1  UNL1        0.0897
     25 C          59.0147   91.3349   11.5484 C.3     1  UNL1        0.0897
     26 O          62.0733   85.0226   10.5927 O.3     1  UNL1       -0.4415
     27 C          62.9152   84.4676    9.4823 C.2     1  UNL1        0.3179
     28 C          62.8797   85.1037    8.1243 C.3     1  UNL1        0.1212
     29 O          63.7926   83.2764    9.7298 O.2     1  UNL1       -0.2501
@<TRIPOS>BOND
     1    19    20    1
     2    20    13    1
     3    13    14   ar
     4    14    15   ar
     5    15    16   ar
     6     1    16    1
     7     1     2    1
     8     2     3    1
     9     3     4   ar
    10     4     5   ar
    11     5     6   ar
    12     6     7   ar
    13     7     8   ar
    14     8     9    1
    15     9    21    1
    16    21    22    1
    17    22    23    1
    18    23    24    1
    19    23    25    1
    20     9    10   am
    21    10    11    2
    22    10    12    1
    23    12    26    1
    24    26    27    1
    25    27    28    1
    26    27    29    2
    27    16    17   ar
    28    17    18   ar
    29    18    13   ar
    30    12     1    1
    31     8     3   ar
@<TRIPOS>MOLECULE
*****
 29 31 0 0 0
SMALL
GASTEIGER

@<TRIPOS>ATOM
      1 C          62.9359   85.5827   12.3443 C.3     1  UNL1        0.1232
      2 S          62.3831   86.3539   11.1826 S.3     1  UNL1       -0.1046
      3 C          62.2935   87.8407   11.0045 C.ar    1  UNL1        0.0393
      4 C          61.6691   88.1983    9.6884 C.ar    1  UNL1        0.0074
      5 C          61.4857   89.6387    9.3121 C.ar    1  UNL1        0.0006
      6 C          61.9268   90.7214   10.2519 C.ar    1  UNL1        0.0013
      7 C          62.5512   90.3637   11.5680 C.ar    1  UNL1        0.0154
      8 C          62.7345   88.9234   11.9443 C.ar    1  UNL1        0.0596
      9 N          63.3741   88.7867   13.2943 N.am    1  UNL1       -0.2538
     10 C          63.7307   87.5337   14.0378 C.2     1  UNL1        0.2709
     11 O          64.3662   87.7329   15.3818 O.2     1  UNL1       -0.2706
     12 C          63.5356   86.1078   13.6150 C.3     1  UNL1        0.2585
     13 C          62.7738   81.1014   11.9677 C.ar    1  UNL1        0.1387
     14 C          63.4997   81.9149   10.9375 C.ar    1  UNL1        0.0366
     15 C          63.5538   83.4087   11.0630 C.ar    1  UNL1       -0.0002
     16 C          62.8818   84.0890   12.2188 C.ar    1  UNL1       -0.0080
     17 C          62.1559   83.2756   13.2490 C.ar    1  UNL1       -0.0002
     18 C          62.1018   81.7818   13.1235 C.ar    1  UNL1        0.0366
     19 C          62.7740   78.9664   10.4872 C.3     1  UNL1        0.2525
     20 O          62.7197   79.6077   11.8422 O.3     1  UNL1       -0.4714
     21 C          63.7003   90.0733   13.9930 C.3     1  UNL1        0.1156
     22 C          65.1308   90.4883   14.1714 C.3     1  UNL1        0.0943
     23 N          65.5371   91.9091   13.9144 N.3     1  UNL1       -0.2688
     24 C          65.3234   92.5169   12.5598 C.3     1  UNL1        0.0897
     25 C          66.1570   92.7221   15.0119 C.3     1  UNL1        0.0897
     26 O          64.0020   85.0697   14.5921 O.3     1  UNL1       -0.4415
     27 C          65.3670   84.4645   14.4490 C.2     1  UNL1        0.3179
     28 C          65.5116   82.9980   14.1687 C.3     1  UNL1        0.1212
     29 O          66.5874   85.3258   14.5863 O.2     1  UNL1       -0.2501
@<TRIPOS>BOND
     1    19    20    1
     2    20    13    1
     3    13    14   ar
     4    14    15   ar
     5    15    16   ar
     6     1    16    1
     7     1     2    1
     8     2     3    1
     9     3     4   ar
    10     4     5   ar
    11     5     6   ar
    12     6     7   ar
    13     7     8   ar
    14     8     9    1
    15     9    21    1
    16    21    22    1
    17    22    23    1
    18    23    24    1
    19    23    25    1
    20     9    10   am
    21    10    11    2
    22    10    12    1
    23    12    26    1
    24    26    27    1
    25    27    28    1
    26    27    29    2
    27    16    17   ar
    28    17    18   ar
    29    18    13   ar
    30    12     1    1
    31     8     3   ar
