@<TRIPOS>MOLECULE
*****
 39 42 0 0 0
SMALL
GASTEIGER

@<TRIPOS>ATOM
      1 N          64.4276   91.0996   12.8068 N.pl3   1  UNL1       -0.3043
      2 C          64.4379   89.6025   12.8984 C.3     1  UNL1        0.1123
      3 C          63.5065   88.7925   12.0460 C.3     1  UNL1        0.1149
      4 N          62.5649   89.4797   11.1020 N.am    1  UNL1       -0.2747
      5 C          61.6336   88.6698   10.2496 C.2     1  UNL1        0.2442
      6 O          60.6920   89.3570    9.3056 O.2     1  UNL1       -0.2731
      7 C          62.5547   90.9769   11.0103 C.3     1  UNL1        0.1149
      8 C          63.4861   91.7868   11.8628 C.3     1  UNL1        0.1123
      9 C          66.1978   92.9872   13.0386 C.ar    1  UNL1        0.0073
     10 C          67.1291   93.7971   13.8910 C.ar    1  UNL1        0.0279
     11 C          67.2217   93.5294   15.3640 C.ar    1  UNL1        0.1400
     12 F          68.1531   94.3393   16.2164 F       1  UNL1       -0.2042
     13 C          66.3829   92.4518   15.9846 C.ar    1  UNL1        0.0309
     14 C          65.4516   91.6419   15.1322 C.ar    1  UNL1        0.0165
     15 C          65.3590   91.9096   13.6592 C.ar    1  UNL1        0.0453
     16 C          66.1053   93.2549   11.5656 C.3     1  UNL1        0.0749
     17 N          65.2585   94.3853   11.0605 N.3     1  UNL1       -0.3188
     18 H          65.3115   94.4213   10.0425 H       1  UNL1        0.1191
     19 H          65.5980   95.2648   11.4499 H       1  UNL1        0.1191
     20 C          66.8594   92.3922   10.5977 C.3     1  UNL1        0.0201
     21 C          68.7907   92.1619    8.8750 C.3     1  UNL1        0.0001
     22 C          67.8057   93.0171    9.6158 C.3     1  UNL1        0.0017
     23 C          67.7672   94.4970    9.3747 C.3     1  UNL1        0.0001
     24 C          61.6438   87.1726   10.3413 C.3     1  UNL1        0.1564
     25 N          61.7241   86.3453    9.0927 N.am    1  UNL1       -0.2727
     26 C          62.9488   85.6547    8.5697 C.3     1  UNL1        0.0943
     27 C          62.5755   84.9459    7.3016 C.3     1  UNL1        0.0311
     28 C          61.1200   85.1984    7.0407 C.3     1  UNL1        0.0870
     29 C          60.5939   86.0632    8.1476 C.2     1  UNL1        0.2260
     30 O          59.1849   86.5590    8.2854 O.2     1  UNL1       -0.2749
     31 C          61.5738   86.5027   11.6815 C.3     1  UNL1        0.0564
     32 C          62.3538   85.2466   11.9339 C.ar    1  UNL1       -0.0094
     33 C          62.1009   84.0262   11.0992 C.ar    1  UNL1       -0.0025
     34 C          62.8809   82.7701   11.3515 C.ar    1  UNL1        0.0111
     35 C          63.9138   82.7343   12.4385 C.ar    1  UNL1        0.0585
     36 CL         64.6939   81.4781   12.6908 Cl      1  UNL1       -0.0822
     37 C          64.1668   83.9547   13.2732 C.ar    1  UNL1        0.0225
     38 C          63.3868   85.2108   13.0209 C.ar    1  UNL1        0.0546
     39 CL         63.6397   86.4311   13.8556 Cl      1  UNL1       -0.0825
@<TRIPOS>BOND
     1    21    22    1
     2    22    23    1
     3    22    20    1
     4    20    16    1
     5    16    17    1
     6    16     9    1
     7     9    10   ar
     8    10    11   ar
     9    11    12    1
    10    11    13   ar
    11    13    14   ar
    12    14    15   ar
    13    15     1    1
    14     1     2    1
    15     2     3    1
    16     3     4    1
    17     4     5   am
    18     5     6    2
    19     5    24    1
    20    24    31    1
    21    31    32    1
    22    32    33   ar
    23    33    34   ar
    24    34    35   ar
    25    35    36    1
    26    35    37   ar
    27    37    38   ar
    28    38    39    1
    29    24    25    1
    30    25    26    1
    31    26    27    1
    32    27    28    1
    33    28    29    1
    34    29    30    2
    35     4     7    1
    36     7     8    1
    37    15     9   ar
    38     8     1    1
    39    38    32   ar
    40    29    25   am
    41    17    18    1
    42    17    19    1
@<TRIPOS>MOLECULE
*****
 39 42 0 0 0
SMALL
GASTEIGER

@<TRIPOS>ATOM
      1 N          61.5875   86.3150    9.5008 N.pl3   1  UNL1       -0.3043
      2 C          61.2795   85.9881   10.9319 C.3     1  UNL1        0.1123
      3 C          62.1144   84.9826   11.6680 C.3     1  UNL1        0.1149
      4 N          63.2574   84.3039   10.9728 N.am    1  UNL1       -0.2747
      5 C          64.0923   83.2984   11.7088 C.2     1  UNL1        0.2442
      6 O          65.2351   82.6198   11.0137 O.2     1  UNL1       -0.2731
      7 C          63.5653   84.6308    9.5416 C.3     1  UNL1        0.1149
      8 C          62.7303   85.6364    8.8056 C.3     1  UNL1        0.1123
      9 C          60.6256   88.7194    9.2912 C.ar    1  UNL1        0.0073
     10 C          59.7907   89.7249    8.5552 C.ar    1  UNL1        0.0279
     11 C          59.0826   89.3316    7.2927 C.ar    1  UNL1        0.1400
     12 F          58.2476   90.3372    6.5567 F       1  UNL1       -0.2042
     13 C          59.2094   87.9328    6.7662 C.ar    1  UNL1        0.0309
     14 C          60.0444   86.9273    7.5022 C.ar    1  UNL1        0.0165
     15 C          60.7525   87.3206    8.7647 C.ar    1  UNL1        0.0453
     16 C          61.3337   89.1127   10.5537 C.3     1  UNL1        0.0749
     17 N          60.5635   89.2527   11.8332 N.3     1  UNL1       -0.3188
     18 H          61.1983   89.5237   12.5842 H       1  UNL1        0.1191
     19 H          60.1239   88.3619   12.0646 H       1  UNL1        0.1191
     20 C          62.8121   89.3660   10.5367 C.3     1  UNL1        0.0201
     21 C          63.6867   91.8029   10.3201 C.3     1  UNL1        0.0001
     22 C          63.3675   90.6078   11.1687 C.3     1  UNL1        0.0017
     23 C          63.6038   90.6546   12.6492 C.3     1  UNL1        0.0001
     24 C          63.7843   82.9714   13.1400 C.3     1  UNL1        0.1564
     25 N          62.6575   82.0382   13.4704 N.am    1  UNL1       -0.2727
     26 C          61.6101   82.2578   14.5217 C.3     1  UNL1        0.0943
     27 C          60.6854   81.0768   14.5086 C.3     1  UNL1        0.0311
     28 C          61.1612   80.1272   13.4493 C.3     1  UNL1        0.0870
     29 C          62.3800   80.7214   12.8077 C.2     1  UNL1        0.2260
     30 O          63.1807   80.1068   11.6982 O.2     1  UNL1       -0.2749
     31 C          64.6032   83.5778   14.2408 C.3     1  UNL1        0.0564
     32 C          64.2476   84.9308   14.7821 C.ar    1  UNL1       -0.0094
     33 C          64.7347   86.1680   14.0878 C.ar    1  UNL1       -0.0025
     34 C          64.3791   87.5210   14.6290 C.ar    1  UNL1        0.0111
     35 C          63.5365   87.6368   15.8645 C.ar    1  UNL1        0.0585
     36 CL         63.1809   88.9898   16.4058 Cl      1  UNL1       -0.0822
     37 C          63.0494   86.3995   16.5588 C.ar    1  UNL1        0.0225
     38 C          63.4050   85.0466   16.0176 C.ar    1  UNL1        0.0546
     39 CL         62.9179   83.8093   16.7119 Cl      1  UNL1       -0.0825
@<TRIPOS>BOND
     1    21    22    1
     2    22    23    1
     3    22    20    1
     4    20    16    1
     5    16    17    1
     6    16     9    1
     7     9    10   ar
     8    10    11   ar
     9    11    12    1
    10    11    13   ar
    11    13    14   ar
    12    14    15   ar
    13    15     1    1
    14     1     2    1
    15     2     3    1
    16     3     4    1
    17     4     5   am
    18     5     6    2
    19     5    24    1
    20    24    31    1
    21    31    32    1
    22    32    33   ar
    23    33    34   ar
    24    34    35   ar
    25    35    36    1
    26    35    37   ar
    27    37    38   ar
    28    38    39    1
    29    24    25    1
    30    25    26    1
    31    26    27    1
    32    27    28    1
    33    28    29    1
    34    29    30    2
    35     4     7    1
    36     7     8    1
    37    15     9   ar
    38     8     1    1
    39    38    32   ar
    40    29    25   am
    41    17    18    1
    42    17    19    1
@<TRIPOS>MOLECULE
*****
 39 42 0 0 0
SMALL
GASTEIGER

@<TRIPOS>ATOM
      1 N          63.4214   85.2547   14.2092 N.pl3   1  UNL1       -0.3043
      2 C          63.9816   86.3243   13.3192 C.3     1  UNL1        0.1123
      3 C          64.1308   87.7256   13.8331 C.3     1  UNL1        0.1149
      4 N          63.7198   88.0573   15.2371 N.am    1  UNL1       -0.2747
      5 C          63.8690   89.4586   15.7510 C.2     1  UNL1        0.2442
      6 O          63.4580   89.7903   17.1549 O.2     1  UNL1       -0.2731
      7 C          63.1596   86.9877   16.1271 C.3     1  UNL1        0.1149
      8 C          63.0104   85.5864   15.6131 C.3     1  UNL1        0.1123
      9 C          62.7886   83.6154   12.2954 C.ar    1  UNL1        0.0073
     10 C          62.6395   82.2142   11.7815 C.ar    1  UNL1        0.0279
     11 C          62.9739   81.0508   12.6674 C.ar    1  UNL1        0.1400
     12 F          62.8247   79.6495   12.1535 F       1  UNL1       -0.2042
     13 C          63.4574   81.2888   14.0672 C.ar    1  UNL1        0.0309
     14 C          63.6066   82.6901   14.5811 C.ar    1  UNL1        0.0165
     15 C          63.2722   83.8534   13.6952 C.ar    1  UNL1        0.0453
     16 C          62.4542   84.7788   11.4095 C.3     1  UNL1        0.0749
     17 N          61.4335   85.7865   11.8482 N.3     1  UNL1       -0.3188
     18 H          61.3324   86.5031   11.1294 H       1  UNL1        0.1191
     19 H          61.7367   86.2200   12.7203 H       1  UNL1        0.1191
     20 C          63.1406   84.9344   10.0849 C.3     1  UNL1        0.0201
     21 C          62.0457   87.1458    9.2720 C.3     1  UNL1        0.0001
     22 C          62.4970   85.7419    8.9970 C.3     1  UNL1        0.0017
     23 C          62.3047   85.1457    7.6341 C.3     1  UNL1        0.0001
     24 C          64.4292   90.5282   14.8609 C.3     1  UNL1        0.1564
     25 N          65.6769   91.2587   15.2602 N.am    1  UNL1       -0.2727
     26 C          67.0538   91.0142   14.7175 C.3     1  UNL1        0.0943
     27 C          67.9947   91.9664   15.3942 C.3     1  UNL1        0.0311
     28 C          67.1994   92.7995   16.3552 C.3     1  UNL1        0.0870
     29 C          65.7669   92.3621   16.2724 C.2     1  UNL1        0.2260
     30 O          64.6250   92.9287   17.0629 O.2     1  UNL1       -0.2749
     31 C          63.7417   90.8672   13.5716 C.3     1  UNL1        0.0564
     32 C          64.4360   91.7230   12.5539 C.ar    1  UNL1       -0.0094
     33 C          65.4325   92.7537   12.9950 C.ar    1  UNL1       -0.0025
     34 C          66.1267   93.6095   11.9774 C.ar    1  UNL1        0.0111
     35 C          65.8244   93.4346   10.5186 C.ar    1  UNL1        0.0585
     36 CL         66.5187   94.2904    9.5009 Cl      1  UNL1       -0.0822
     37 C          64.8279   92.4039   10.0775 C.ar    1  UNL1        0.0225
     38 C          64.1337   91.5481   11.0952 C.ar    1  UNL1        0.0546
     39 CL         63.1371   90.5174   10.6541 Cl      1  UNL1       -0.0825
@<TRIPOS>BOND
     1    21    22    1
     2    22    23    1
     3    22    20    1
     4    20    16    1
     5    16    17    1
     6    16     9    1
     7     9    10   ar
     8    10    11   ar
     9    11    12    1
    10    11    13   ar
    11    13    14   ar
    12    14    15   ar
    13    15     1    1
    14     1     2    1
    15     2     3    1
    16     3     4    1
    17     4     5   am
    18     5     6    2
    19     5    24    1
    20    24    31    1
    21    31    32    1
    22    32    33   ar
    23    33    34   ar
    24    34    35   ar
    25    35    36    1
    26    35    37   ar
    27    37    38   ar
    28    38    39    1
    29    24    25    1
    30    25    26    1
    31    26    27    1
    32    27    28    1
    33    28    29    1
    34    29    30    2
    35     4     7    1
    36     7     8    1
    37    15     9   ar
    38     8     1    1
    39    38    32   ar
    40    29    25   am
    41    17    18    1
    42    17    19    1
@<TRIPOS>MOLECULE
*****
 39 42 0 0 0
SMALL
GASTEIGER

@<TRIPOS>ATOM
      1 N          63.2582   84.9020   13.5603 N.pl3   1  UNL1       -0.3043
      2 C          62.5759   85.9012   12.6736 C.3     1  UNL1        0.1123
      3 C          62.9115   87.3586   12.7890 C.3     1  UNL1        0.1149
      4 N          63.9293   87.8169   13.7911 N.am    1  UNL1       -0.2747
      5 C          64.2648   89.2743   13.9064 C.2     1  UNL1        0.2442
      6 O          65.2826   89.7325   14.9085 O.2     1  UNL1       -0.2731
      7 C          64.6116   86.8177   14.6777 C.3     1  UNL1        0.1149
      8 C          64.2760   85.3602   14.5623 C.3     1  UNL1        0.1123
      9 C          63.3403   82.6728   12.2284 C.ar    1  UNL1        0.0073
     10 C          63.0047   81.2154   12.1130 C.ar    1  UNL1        0.0279
     11 C          62.2514   80.5298   13.2141 C.ar    1  UNL1        0.1400
     12 F          61.9158   79.0723   13.0987 F       1  UNL1       -0.2042
     13 C          61.8336   81.3016   14.4306 C.ar    1  UNL1        0.0309
     14 C          62.1692   82.7589   14.5459 C.ar    1  UNL1        0.0165
     15 C          62.9226   83.4446   13.4448 C.ar    1  UNL1        0.0453
     16 C          64.0937   83.3584   11.1273 C.3     1  UNL1        0.0749
     17 N          65.4416   83.9571   11.4006 N.3     1  UNL1       -0.3188
     18 H          65.8058   84.3788   10.5462 H       1  UNL1        0.1191
     19 H          66.0795   83.2275   11.7184 H       1  UNL1        0.1191
     20 C          63.4991   83.4454    9.7529 C.3     1  UNL1        0.0201
     21 C          63.2518   85.4184    8.0808 C.3     1  UNL1        0.0001
     22 C          62.7993   84.6982    9.3164 C.3     1  UNL1        0.0017
     23 C          61.6470   85.2309   10.1153 C.3     1  UNL1        0.0001
     24 C          63.5826   90.2735   13.0198 C.3     1  UNL1        0.1564
     25 N          64.3847   91.3419   12.3378 N.am    1  UNL1       -0.2727
     26 C          64.4656   91.5745   10.8581 C.3     1  UNL1        0.0943
     27 C          65.3776   92.7417   10.6215 C.3     1  UNL1        0.0311
     28 C          65.8604   93.2305   11.9550 C.3     1  UNL1        0.0870
     29 C          65.2467   92.3654   13.0157 C.2     1  UNL1        0.2260
     30 O          65.4579   92.5001   14.4946 O.2     1  UNL1       -0.2749
     31 C          62.0983   90.2043   12.8151 C.3     1  UNL1        0.0564
     32 C          61.5411   89.5815   11.5694 C.ar    1  UNL1       -0.0094
     33 C          62.4443   89.2912   10.4075 C.ar    1  UNL1       -0.0025
     34 C          61.8873   88.6685    9.1618 C.ar    1  UNL1        0.0111
     35 C          60.4270   88.3361    9.0779 C.ar    1  UNL1        0.0585
     36 CL         59.8699   87.7134    7.8321 Cl      1  UNL1       -0.0822
     37 C          59.5238   88.6264   10.2398 C.ar    1  UNL1        0.0225
     38 C          60.0809   89.2491   11.4855 C.ar    1  UNL1        0.0546
     39 CL         59.1776   89.5395   12.6474 Cl      1  UNL1       -0.0825
@<TRIPOS>BOND
     1    21    22    1
     2    22    23    1
     3    22    20    1
     4    20    16    1
     5    16    17    1
     6    16     9    1
     7     9    10   ar
     8    10    11   ar
     9    11    12    1
    10    11    13   ar
    11    13    14   ar
    12    14    15   ar
    13    15     1    1
    14     1     2    1
    15     2     3    1
    16     3     4    1
    17     4     5   am
    18     5     6    2
    19     5    24    1
    20    24    31    1
    21    31    32    1
    22    32    33   ar
    23    33    34   ar
    24    34    35   ar
    25    35    36    1
    26    35    37   ar
    27    37    38   ar
    28    38    39    1
    29    24    25    1
    30    25    26    1
    31    26    27    1
    32    27    28    1
    33    28    29    1
    34    29    30    2
    35     4     7    1
    36     7     8    1
    37    15     9   ar
    38     8     1    1
    39    38    32   ar
    40    29    25   am
    41    17    18    1
    42    17    19    1
@<TRIPOS>MOLECULE
*****
 39 42 0 0 0
SMALL
GASTEIGER

@<TRIPOS>ATOM
      1 N          63.3733   85.2238   13.3743 N.pl3   1  UNL1       -0.3043
      2 C          63.0007   86.2097   12.3070 C.3     1  UNL1        0.1123
      3 C          63.2474   87.6739   12.5193 C.3     1  UNL1        0.1149
      4 N          63.8666   88.1523   13.7991 N.am    1  UNL1       -0.2747
      5 C          64.1132   89.6166   14.0115 C.2     1  UNL1        0.2442
      6 O          64.7324   90.0949   15.2912 O.2     1  UNL1       -0.2731
      7 C          64.2391   87.1665   14.8665 C.3     1  UNL1        0.1149
      8 C          63.9924   85.7022   14.6541 C.3     1  UNL1        0.1123
      9 C          63.0084   83.2130   11.7700 C.ar    1  UNL1        0.0073
     10 C          62.7618   81.7488   11.5577 C.ar    1  UNL1        0.0279
     11 C          62.6332   80.8311   12.7372 C.ar    1  UNL1        0.1400
     12 F          62.3866   79.3668   12.5247 F       1  UNL1       -0.2042
     13 C          62.7514   81.3775   14.1290 C.ar    1  UNL1        0.0309
     14 C          62.9981   82.8418   14.3414 C.ar    1  UNL1        0.0165
     15 C          63.1266   83.7595   13.1619 C.ar    1  UNL1        0.0453
     16 C          63.1369   84.1308   10.5905 C.3     1  UNL1        0.0749
     17 N          64.4021   84.1440    9.7849 N.3     1  UNL1       -0.3188
     18 H          64.3157   84.8215    9.0273 H       1  UNL1        0.1191
     19 H          64.5661   83.2162    9.3942 H       1  UNL1        0.1191
     20 C          62.0003   85.0353   10.2167 C.3     1  UNL1        0.0201
     21 C          62.8147   85.0439    7.7495 C.3     1  UNL1        0.0001
     22 C          61.8668   85.5284    8.8064 C.3     1  UNL1        0.0017
     23 C          60.7854   86.5059    8.4528 C.3     1  UNL1        0.0001
     24 C          63.7407   90.6025   12.9441 C.3     1  UNL1        0.1564
     25 N          62.6952   90.2488   11.9284 N.am    1  UNL1       -0.2727
     26 C          62.8928   90.1928   10.4424 C.3     1  UNL1        0.0943
     27 C          61.5883   89.7984    9.8158 C.3     1  UNL1        0.0311
     28 C          60.5844   89.6106   10.9144 C.3     1  UNL1        0.0870
     29 C          61.2685   89.8890   12.2201 C.2     1  UNL1        0.2260
     30 O          60.6368   89.8197   13.5788 O.2     1  UNL1       -0.2749
     31 C          64.4137   91.9420   12.8926 C.3     1  UNL1        0.0564
     32 C          65.6078   92.1479   12.0084 C.ar    1  UNL1       -0.0094
     33 C          65.4206   92.5745   10.5825 C.ar    1  UNL1       -0.0025
     34 C          66.6147   92.7804    9.6984 C.ar    1  UNL1        0.0111
     35 C          67.9959   92.5597   10.2401 C.ar    1  UNL1        0.0585
     36 CL         69.1900   92.7656    9.3559 Cl      1  UNL1       -0.0822
     37 C          68.1831   92.1332   11.6659 C.ar    1  UNL1        0.0225
     38 C          66.9890   91.9273   12.5501 C.ar    1  UNL1        0.0546
     39 CL         67.1762   91.5007   13.9759 Cl      1  UNL1       -0.0825
@<TRIPOS>BOND
     1    21    22    1
     2    22    23    1
     3    22    20    1
     4    20    16    1
     5    16    17    1
     6    16     9    1
     7     9    10   ar
     8    10    11   ar
     9    11    12    1
    10    11    13   ar
    11    13    14   ar
    12    14    15   ar
    13    15     1    1
    14     1     2    1
    15     2     3    1
    16     3     4    1
    17     4     5   am
    18     5     6    2
    19     5    24    1
    20    24    31    1
    21    31    32    1
    22    32    33   ar
    23    33    34   ar
    24    34    35   ar
    25    35    36    1
    26    35    37   ar
    27    37    38   ar
    28    38    39    1
    29    24    25    1
    30    25    26    1
    31    26    27    1
    32    27    28    1
    33    28    29    1
    34    29    30    2
    35     4     7    1
    36     7     8    1
    37    15     9   ar
    38     8     1    1
    39    38    32   ar
    40    29    25   am
    41    17    18    1
    42    17    19    1
@<TRIPOS>MOLECULE
*****
 39 42 0 0 0
SMALL
GASTEIGER

@<TRIPOS>ATOM
      1 N          63.3490   85.1809   13.4633 N.pl3   1  UNL1       -0.3043
      2 C          62.9756   86.1383   12.3706 C.3     1  UNL1        0.1123
      3 C          63.2887   87.5983   12.5132 C.3     1  UNL1        0.1149
      4 N          63.9753   88.1010   13.7486 N.am    1  UNL1       -0.2747
      5 C          64.2885   89.5609   13.8912 C.2     1  UNL1        0.2442
      6 O          64.9750   90.0635   15.1265 O.2     1  UNL1       -0.2731
      7 C          64.3487   87.1436   14.8413 C.3     1  UNL1        0.1149
      8 C          64.0355   85.6835   14.6986 C.3     1  UNL1        0.1123
      9 C          62.9859   83.0941   11.9589 C.ar    1  UNL1        0.0073
     10 C          62.6727   81.6342   11.8163 C.ar    1  UNL1        0.0279
     11 C          62.4095   80.8010   13.0355 C.ar    1  UNL1        0.1400
     12 F          62.0963   79.3409   12.8928 F       1  UNL1       -0.2042
     13 C          62.4594   81.4278   14.3973 C.ar    1  UNL1        0.0309
     14 C          62.7725   82.8877   14.5399 C.ar    1  UNL1        0.0165
     15 C          63.0358   83.7209   13.3207 C.ar    1  UNL1        0.0453
     16 C          63.2491   83.9273   10.7396 C.3     1  UNL1        0.0749
     17 N          64.6173   83.9461   10.1252 N.3     1  UNL1       -0.3188
     18 H          64.6159   84.5602    9.3108 H       1  UNL1        0.1191
     19 H          64.8742   83.0016    9.8383 H       1  UNL1        0.1191
     20 C          62.1442   84.7417   10.1349 C.3     1  UNL1        0.0201
     21 C          62.8140   84.9154    7.6306 C.3     1  UNL1        0.0001
     22 C          62.4073   85.5744    8.9153 C.3     1  UNL1        0.0017
     23 C          62.2637   87.0661    8.9804 C.3     1  UNL1        0.0001
     24 C          63.9151   90.5183   12.7985 C.3     1  UNL1        0.1564
     25 N          62.6337   90.3300   12.0418 N.am    1  UNL1       -0.2727
     26 C          62.4560   90.4733   10.5592 C.3     1  UNL1        0.0943
     27 C          61.0175   90.1972   10.2359 C.3     1  UNL1        0.0311
     28 C          60.3061   89.8832   11.5186 C.3     1  UNL1        0.0870
     29 C          61.3050   89.9653   12.6347 C.2     1  UNL1        0.2260
     30 O          61.0244   89.7249   14.0885 O.2     1  UNL1       -0.2749
     31 C          64.8230   91.6640   12.4624 C.3     1  UNL1        0.0564
     32 C          65.9075   92.0666   13.4174 C.ar    1  UNL1       -0.0094
     33 C          65.5577   92.4976   14.8110 C.ar    1  UNL1       -0.0025
     34 C          66.6421   92.9002   15.7659 C.ar    1  UNL1        0.0111
     35 C          68.0762   92.8718   15.3274 C.ar    1  UNL1        0.0585
     36 CL         69.1607   93.2744   16.2823 Cl      1  UNL1       -0.0822
     37 C          68.4260   92.4409   13.9338 C.ar    1  UNL1        0.0225
     38 C          67.3416   92.0383   12.9789 C.ar    1  UNL1        0.0546
     39 CL         67.6914   91.6073   11.5853 Cl      1  UNL1       -0.0825
@<TRIPOS>BOND
     1    21    22    1
     2    22    23    1
     3    22    20    1
     4    20    16    1
     5    16    17    1
     6    16     9    1
     7     9    10   ar
     8    10    11   ar
     9    11    12    1
    10    11    13   ar
    11    13    14   ar
    12    14    15   ar
    13    15     1    1
    14     1     2    1
    15     2     3    1
    16     3     4    1
    17     4     5   am
    18     5     6    2
    19     5    24    1
    20    24    31    1
    21    31    32    1
    22    32    33   ar
    23    33    34   ar
    24    34    35   ar
    25    35    36    1
    26    35    37   ar
    27    37    38   ar
    28    38    39    1
    29    24    25    1
    30    25    26    1
    31    26    27    1
    32    27    28    1
    33    28    29    1
    34    29    30    2
    35     4     7    1
    36     7     8    1
    37    15     9   ar
    38     8     1    1
    39    38    32   ar
    40    29    25   am
    41    17    18    1
    42    17    19    1
@<TRIPOS>MOLECULE
*****
 39 42 0 0 0
SMALL
GASTEIGER

@<TRIPOS>ATOM
      1 N          64.6197   91.0756   12.3437 N.pl3   1  UNL1       -0.3043
      2 C          63.8131   90.4302   11.2561 C.3     1  UNL1        0.1123
      3 C          63.2698   89.0451   11.4466 C.3     1  UNL1        0.1149
      4 N          63.5332   88.3053   12.7247 N.am    1  UNL1       -0.2747
      5 C          62.9899   86.9202   12.9151 C.2     1  UNL1        0.2442
      6 O          63.2533   86.1805   14.1931 O.2     1  UNL1       -0.2731
      7 C          64.3398   88.9507   13.8122 C.3     1  UNL1        0.1149
      8 C          64.8831   90.3359   13.6217 C.3     1  UNL1        0.1123
      9 C          65.8905   93.1418   13.2743 C.ar    1  UNL1        0.0073
     10 C          66.4337   94.5269   13.0838 C.ar    1  UNL1        0.0279
     11 C          66.2494   95.2310   11.7722 C.ar    1  UNL1        0.1400
     12 F          66.7926   96.6162   11.5817 F       1  UNL1       -0.2042
     13 C          65.5218   94.5499   10.6511 C.ar    1  UNL1        0.0309
     14 C          64.9786   93.1648   10.8416 C.ar    1  UNL1        0.0165
     15 C          65.1629   92.4608   12.1532 C.ar    1  UNL1        0.0453
     16 C          66.0748   92.4377   14.5859 C.3     1  UNL1        0.0749
     17 N          65.0008   92.5053   15.6308 N.3     1  UNL1       -0.3188
     18 H          65.2914   91.9744   16.4519 H       1  UNL1        0.1191
     19 H          64.1380   92.1094   15.2578 H       1  UNL1        0.1191
     20 C          67.3331   91.6660   14.8525 C.3     1  UNL1        0.0201
     21 C          68.9515   93.4096   15.8971 C.3     1  UNL1        0.0001
     22 C          68.6578   92.3696   14.8567 C.3     1  UNL1        0.0017
     23 C          69.6889   92.0334   13.8204 C.3     1  UNL1        0.0001
     24 C          62.1833   86.2748   11.8275 C.3     1  UNL1        0.1564
     25 N          62.7902   85.1918   10.9857 N.am    1  UNL1       -0.2727
     26 C          63.1271   85.2928    9.5274 C.3     1  UNL1        0.0943
     27 C          63.7118   83.9811    9.0947 C.3     1  UNL1        0.0311
     28 C          63.7364   83.0692   10.2855 C.3     1  UNL1        0.0870
     29 C          63.1668   83.8175   11.4542 C.2     1  UNL1        0.2260
     30 O          63.0026   83.2849   12.8468 O.2     1  UNL1       -0.2749
     31 C          60.7698   86.7124   11.5818 C.3     1  UNL1        0.0564
     32 C          60.4098   87.3992   10.2976 C.ar    1  UNL1       -0.0094
     33 C          60.3351   86.6133    9.0222 C.ar    1  UNL1       -0.0025
     34 C          59.9751   87.2999    7.7381 C.ar    1  UNL1        0.0111
     35 C          59.6898   88.7725    7.7295 C.ar    1  UNL1        0.0585
     36 CL         59.3297   89.4592    6.4454 Cl      1  UNL1       -0.0822
     37 C          59.7644   89.5584    9.0050 C.ar    1  UNL1        0.0225
     38 C          60.1244   88.8717   10.2891 C.ar    1  UNL1        0.0546
     39 CL         60.1991   89.6576   11.5645 Cl      1  UNL1       -0.0825
@<TRIPOS>BOND
     1    21    22    1
     2    22    23    1
     3    22    20    1
     4    20    16    1
     5    16    17    1
     6    16     9    1
     7     9    10   ar
     8    10    11   ar
     9    11    12    1
    10    11    13   ar
    11    13    14   ar
    12    14    15   ar
    13    15     1    1
    14     1     2    1
    15     2     3    1
    16     3     4    1
    17     4     5   am
    18     5     6    2
    19     5    24    1
    20    24    31    1
    21    31    32    1
    22    32    33   ar
    23    33    34   ar
    24    34    35   ar
    25    35    36    1
    26    35    37   ar
    27    37    38   ar
    28    38    39    1
    29    24    25    1
    30    25    26    1
    31    26    27    1
    32    27    28    1
    33    28    29    1
    34    29    30    2
    35     4     7    1
    36     7     8    1
    37    15     9   ar
    38     8     1    1
    39    38    32   ar
    40    29    25   am
    41    17    18    1
    42    17    19    1
@<TRIPOS>MOLECULE
*****
 39 42 0 0 0
SMALL
GASTEIGER

@<TRIPOS>ATOM
      1 N          61.3266   96.1416   -0.9631 N.pl3   1  UNL1       -0.3043
      2 C          60.0785   95.3839   -0.6194 C.3     1  UNL1        0.1123
      3 C          58.9392   95.3339   -1.5938 C.3     1  UNL1        0.1149
      4 N          59.0480   96.0417   -2.9119 N.am    1  UNL1       -0.2747
      5 C          57.9087   95.9916   -3.8863 C.2     1  UNL1        0.2442
      6 O          58.0175   96.6994   -5.2043 O.2     1  UNL1       -0.2731
      7 C          60.2960   96.7994   -3.2556 C.3     1  UNL1        0.1149
      8 C          61.4354   96.8494   -2.2811 C.3     1  UNL1        0.1123
      9 C          63.8032   95.6288   -0.3688 C.ar    1  UNL1        0.0073
     10 C          64.9425   95.6788    0.6057 C.ar    1  UNL1        0.0279
     11 C          64.7443   96.2916    1.9603 C.ar    1  UNL1        0.1400
     12 F          65.8836   96.3416    2.9348 F       1  UNL1       -0.2042
     13 C          63.4070   96.8545    2.3405 C.ar    1  UNL1        0.0309
     14 C          62.2677   96.8045    1.3661 C.ar    1  UNL1        0.0165
     15 C          62.4659   96.1916    0.0114 C.ar    1  UNL1        0.0453
     16 C          64.0014   95.0159   -1.7235 C.3     1  UNL1        0.0749
     17 N          64.7724   95.7560   -2.7760 N.3     1  UNL1       -0.3188
     18 H          64.8084   95.1961   -3.6278 H       1  UNL1        0.1191
     19 H          65.7207   95.9302   -2.4433 H       1  UNL1        0.1191
     20 C          63.4285   93.6630   -2.0257 C.3     1  UNL1        0.0201
     21 C          61.9763   93.6840   -4.1800 C.3     1  UNL1        0.0001
     22 C          63.2092   93.2421   -3.4486 C.3     1  UNL1        0.0017
     23 C          64.2228   92.3795   -4.1403 C.3     1  UNL1        0.0001
     24 C          56.6606   95.2339   -3.5427 C.3     1  UNL1        0.1564
     25 N          56.5508   93.7767   -3.8809 N.am    1  UNL1       -0.2727
     26 C          56.7265   93.1718   -5.2424 C.3     1  UNL1        0.0943
     27 C          56.5303   91.6898   -5.1200 C.3     1  UNL1        0.0311
     28 C          56.2334   91.3785   -3.6830 C.3     1  UNL1        0.0870
     29 C          56.2460   92.6684   -2.9172 C.2     1  UNL1        0.2260
     30 O          55.9976   92.8227   -1.4460 O.2     1  UNL1       -0.2749
     31 C          55.5223   95.9334   -2.8609 C.3     1  UNL1        0.0564
     32 C          54.1869   96.0283   -3.5376 C.ar    1  UNL1       -0.0094
     33 C          54.1092   96.1333   -5.0319 C.ar    1  UNL1       -0.0025
     34 C          52.7739   96.2283   -5.7086 C.ar    1  UNL1        0.0111
     35 C          51.5164   96.2181   -4.8910 C.ar    1  UNL1        0.0585
     36 CL         50.1810   96.3130   -5.5678 Cl      1  UNL1       -0.0822
     37 C          51.5941   96.1130   -3.3968 C.ar    1  UNL1        0.0225
     38 C          52.9294   96.0181   -2.7200 C.ar    1  UNL1        0.0546
     39 CL         53.0071   95.9131   -1.2257 Cl      1  UNL1       -0.0825
@<TRIPOS>BOND
     1    21    22    1
     2    22    23    1
     3    22    20    1
     4    20    16    1
     5    16    17    1
     6    16     9    1
     7     9    10   ar
     8    10    11   ar
     9    11    12    1
    10    11    13   ar
    11    13    14   ar
    12    14    15   ar
    13    15     1    1
    14     1     2    1
    15     2     3    1
    16     3     4    1
    17     4     5   am
    18     5     6    2
    19     5    24    1
    20    24    31    1
    21    31    32    1
    22    32    33   ar
    23    33    34   ar
    24    34    35   ar
    25    35    36    1
    26    35    37   ar
    27    37    38   ar
    28    38    39    1
    29    24    25    1
    30    25    26    1
    31    26    27    1
    32    27    28    1
    33    28    29    1
    34    29    30    2
    35     4     7    1
    36     7     8    1
    37    15     9   ar
    38     8     1    1
    39    38    32   ar
    40    29    25   am
    41    17    18    1
    42    17    19    1
@<TRIPOS>MOLECULE
*****
 39 42 0 0 0
SMALL
GASTEIGER

@<TRIPOS>ATOM
      1 N          62.0499   95.2490   -1.2411 N.pl3   1  UNL1       -0.3043
      2 C          60.5654   95.2563   -1.0261 C.3     1  UNL1        0.1123
      3 C          59.6384   95.0499   -2.1871 C.3     1  UNL1        0.1149
      4 N          60.1959   94.8363   -3.5632 N.am    1  UNL1       -0.2747
      5 C          59.2689   94.6299   -4.7243 C.2     1  UNL1        0.2442
      6 O          59.8264   94.4162   -6.1003 O.2     1  UNL1       -0.2731
      7 C          61.6804   94.8290   -3.7782 C.3     1  UNL1        0.1149
      8 C          62.6074   95.0354   -2.6171 C.3     1  UNL1        0.1123
      9 C          62.9232   94.5269    1.0969 C.ar    1  UNL1        0.0073
     10 C          63.8502   94.7333    2.2579 C.ar    1  UNL1        0.0279
     11 C          64.8309   95.8682    2.2421 C.ar    1  UNL1        0.1400
     12 F          65.7579   96.0746    3.4033 F       1  UNL1       -0.2042
     13 C          64.8846   96.7967    1.0653 C.ar    1  UNL1        0.0309
     14 C          63.9576   96.5903   -0.0957 C.ar    1  UNL1        0.0165
     15 C          62.9769   95.4554   -0.0799 C.ar    1  UNL1        0.0453
     16 C          61.9426   93.3920    1.1126 C.3     1  UNL1        0.0749
     17 N          62.0852   92.2639    0.1344 N.3     1  UNL1       -0.3188
     18 H          61.3388   91.5856    0.2865 H       1  UNL1        0.1191
     19 H          62.9891   91.8104    0.2678 H       1  UNL1        0.1191
     20 C          60.8192   93.3852    2.1066 C.3     1  UNL1        0.0201
     21 C          59.6807   92.3507    4.2004 C.3     1  UNL1        0.0001
     22 C          60.8583   92.4467    3.2761 C.3     1  UNL1        0.0017
     23 C          62.0749   91.6042    3.5214 C.3     1  UNL1        0.0001
     24 C          57.7844   94.6372   -4.5093 C.3     1  UNL1        0.1564
     25 N          57.0121   93.3526   -4.5659 N.am    1  UNL1       -0.2727
     26 C          56.2614   92.8267   -5.7534 C.3     1  UNL1        0.0943
     27 C          55.6401   91.5174   -5.3665 C.3     1  UNL1        0.0311
     28 C          56.0069   91.2340   -3.9398 C.3     1  UNL1        0.0870
     29 C          56.8548   92.3682   -3.4451 C.2     1  UNL1        0.2260
     30 O          57.4423   92.4956   -2.0708 O.2     1  UNL1       -0.2749
     31 C          57.0723   95.9291   -4.2377 C.3     1  UNL1        0.0564
     32 C          55.6089   95.9239   -3.9082 C.ar    1  UNL1       -0.0094
     33 C          54.5944   96.1138   -4.9968 C.ar    1  UNL1       -0.0025
     34 C          53.1311   96.1087   -4.6674 C.ar    1  UNL1        0.0111
     35 C          52.6822   95.9137   -3.2495 C.ar    1  UNL1        0.0585
     36 CL         51.2187   95.9085   -2.9201 Cl      1  UNL1       -0.0822
     37 C          53.6966   95.7238   -2.1610 C.ar    1  UNL1        0.0225
     38 C          55.1599   95.7289   -2.4904 C.ar    1  UNL1        0.0546
     39 CL         56.1744   95.5391   -1.4019 Cl      1  UNL1       -0.0825
@<TRIPOS>BOND
     1    21    22    1
     2    22    23    1
     3    22    20    1
     4    20    16    1
     5    16    17    1
     6    16     9    1
     7     9    10   ar
     8    10    11   ar
     9    11    12    1
    10    11    13   ar
    11    13    14   ar
    12    14    15   ar
    13    15     1    1
    14     1     2    1
    15     2     3    1
    16     3     4    1
    17     4     5   am
    18     5     6    2
    19     5    24    1
    20    24    31    1
    21    31    32    1
    22    32    33   ar
    23    33    34   ar
    24    34    35   ar
    25    35    36    1
    26    35    37   ar
    27    37    38   ar
    28    38    39    1
    29    24    25    1
    30    25    26    1
    31    26    27    1
    32    27    28    1
    33    28    29    1
    34    29    30    2
    35     4     7    1
    36     7     8    1
    37    15     9   ar
    38     8     1    1
    39    38    32   ar
    40    29    25   am
    41    17    18    1
    42    17    19    1
