@<TRIPOS>MOLECULE
*****
 33 37 0 0 0
SMALL
GASTEIGER

@<TRIPOS>ATOM
      1 C          63.5443   91.1868   11.4016 C.ar    1  UNL1        0.1646
      2 N          63.8203   89.8760   12.0767 N.ar    1  UNL1       -0.2224
      3 C          62.8596   88.8618   11.5303 C.ar    1  UNL1        0.1074
      4 C          61.9899   89.5458   10.5175 C.ar    1  UNL1        0.0588
      5 S          62.4131   90.9827   10.4379 S.2     1  UNL1       -0.0508
      6 C          62.7822   87.4174   11.9271 C.ar    1  UNL1        0.1026
      7 C          61.9915   86.4522   11.0945 C.ar    1  UNL1        0.0224
      8 C          61.9140   85.0077   11.4912 C.ar    1  UNL1        0.0239
      9 C          62.6274   84.5283   12.7205 C.ar    1  UNL1        0.1189
     10 C          63.4182   85.4934   13.5531 C.ar    1  UNL1        0.2416
     11 N          63.4956   86.9380   13.1564 N.ar    1  UNL1       -0.2089
     12 N          62.5501   83.0838   13.1173 N.ar    1  UNL1       -0.2826
     13 C          62.3227   82.5616   14.5049 C.ar    1  UNL1        0.1826
     14 N          62.3186   81.0629   14.4413 N.ar    1  UNL1       -0.2280
     15 C          62.5434   80.6590   13.0143 C.ar    1  UNL1        0.0786
     16 C          62.6130   79.2528   12.4966 C.3     1  UNL1        0.0538
     17 C          62.6865   81.9079   12.1961 C.ar    1  UNL1        0.0963
     18 O          64.1316   85.0141   14.7825 O.3     1  UNL1       -0.4551
     19 C          63.8372   85.6410   16.1129 C.3     1  UNL1        0.2543
     20 N          64.2719   92.4753   11.6470 N.pl3   1  UNL1       -0.2786
     21 H          63.8395   93.3334   11.4324 H       1  UNL1        0.1555
     22 N          66.9364   92.4676   11.4343 N.ar    1  UNL1       -0.2383
     23 N          68.0780   92.4413   12.4070 N.ar    1  UNL1       -0.1729
     24 C          67.5054   92.4141   13.7931 C.ar    1  UNL1        0.0766
     25 C          66.0099   92.4235   13.6772 C.ar    1  UNL1        0.0244
     26 C          65.6582   92.4566   12.2194 C.ar    1  UNL1        0.1275
     27 C          65.4373   92.3963   15.0633 C.3     1  UNL1        0.0308
     28 C          66.5789   92.3701   16.0359 C.3     1  UNL1        0.0104
     29 C          67.8571   92.3811   15.2510 C.3     1  UNL1        0.0372
     30 C          68.5042   92.3489   16.6038 C.3     1  UNL1        0.0060
     31 C          69.2705   92.3853   14.7488 C.3     1  UNL1        0.0060
     32 C          68.3865   92.2900    9.2860 C.3     1  UNL1        0.0285
     33 C          67.0525   92.4992    9.9392 C.3     1  UNL1        0.1289
@<TRIPOS>BOND
     1    32    33    1
     2    33    22    1
     3    22    23   ar
     4    23    24   ar
     5    24    25   ar
     6    25    26   ar
     7    26    20    1
     8    20     1    1
     9     1     2   ar
    10     2     3   ar
    11     3     6    1
    12     6     7   ar
    13     7     8   ar
    14     8     9   ar
    15     9    12    1
    16    12    13   ar
    17    13    14   ar
    18    14    15   ar
    19    15    16    1
    20    15    17   ar
    21     9    10   ar
    22    10    18    1
    23    18    19    1
    24    10    11   ar
    25     3     4   ar
    26     4     5   ar
    27    25    27    1
    28    27    28    1
    29    28    29    1
    30    29    30    1
    31    29    31    1
    32    26    22   ar
    33     5     1   ar
    34    29    24    1
    35    11     6   ar
    36    17    12   ar
    37    20    21    1
@<TRIPOS>MOLECULE
*****
 33 37 0 0 0
SMALL
GASTEIGER

@<TRIPOS>ATOM
      1 C          61.3059   88.2146    9.8296 C.ar    1  UNL1        0.1646
      2 N          62.5306   88.4432   10.6651 N.ar    1  UNL1       -0.2224
      3 C          62.4466   89.8250   11.2425 C.ar    1  UNL1        0.1074
      4 C          61.1700   90.4505   10.7639 C.ar    1  UNL1        0.0588
      5 S          60.4651   89.4552    9.8907 S.2     1  UNL1       -0.0508
      6 C          63.4611   90.4684   12.1408 C.ar    1  UNL1        0.1026
      7 C          63.7655   89.8664   13.4805 C.ar    1  UNL1        0.0224
      8 C          64.7799   90.5096   14.3789 C.ar    1  UNL1        0.0239
      9 C          65.4901   91.7550   13.9375 C.ar    1  UNL1        0.1189
     10 C          65.1857   92.3570   12.5977 C.ar    1  UNL1        0.2416
     11 N          64.1712   91.7137   11.6993 N.ar    1  UNL1       -0.2089
     12 N          66.5045   92.3984   14.8358 N.ar    1  UNL1       -0.2826
     13 C          66.2980   92.7721   16.2737 C.ar    1  UNL1        0.1826
     14 N          67.5695   93.3857   16.7804 N.ar    1  UNL1       -0.2280
     15 C          68.5619   93.3911   15.6556 C.ar    1  UNL1        0.0786
     16 C          69.9660   93.9148   15.7213 C.3     1  UNL1        0.0538
     17 C          67.9037   92.7809   14.4538 C.ar    1  UNL1        0.0963
     18 O          65.8958   93.6024   12.1563 O.3     1  UNL1       -0.4551
     19 C          65.7519   94.0871   10.7441 C.3     1  UNL1        0.2543
     20 N          60.9795   86.9649    9.0670 N.pl3   1  UNL1       -0.2786
     21 H          60.1814   86.9338    8.4914 H       1  UNL1        0.1555
     22 N          62.4136   84.9570    8.0391 N.ar    1  UNL1       -0.2383
     23 N          63.2515   83.8513    8.6098 N.ar    1  UNL1       -0.1729
     24 C          63.2247   83.9736   10.1046 C.ar    1  UNL1        0.0766
     25 C          62.3704   85.1549   10.4578 C.ar    1  UNL1        0.0244
     26 C          61.8691   85.7626    9.1813 C.ar    1  UNL1        0.1275
     27 C          62.3436   85.2772   11.9525 C.3     1  UNL1        0.0308
     28 C          63.1814   84.1715   12.5231 C.3     1  UNL1        0.0104
     29 C          63.7260   83.3659   11.3810 C.3     1  UNL1        0.0372
     30 C          64.3692   82.5542   12.4661 C.3     1  UNL1        0.0060
     31 C          64.4050   82.3905   10.4658 C.3     1  UNL1        0.0060
     32 C          61.8067   84.0748    5.6721 C.3     1  UNL1        0.0285
     33 C          62.1642   85.2122    6.5823 C.3     1  UNL1        0.1289
@<TRIPOS>BOND
     1    32    33    1
     2    33    22    1
     3    22    23   ar
     4    23    24   ar
     5    24    25   ar
     6    25    26   ar
     7    26    20    1
     8    20     1    1
     9     1     2   ar
    10     2     3   ar
    11     3     6    1
    12     6     7   ar
    13     7     8   ar
    14     8     9   ar
    15     9    12    1
    16    12    13   ar
    17    13    14   ar
    18    14    15   ar
    19    15    16    1
    20    15    17   ar
    21     9    10   ar
    22    10    18    1
    23    18    19    1
    24    10    11   ar
    25     3     4   ar
    26     4     5   ar
    27    25    27    1
    28    27    28    1
    29    28    29    1
    30    29    30    1
    31    29    31    1
    32    26    22   ar
    33     5     1   ar
    34    29    24    1
    35    11     6   ar
    36    17    12   ar
    37    20    21    1
@<TRIPOS>MOLECULE
*****
 33 37 0 0 0
SMALL
GASTEIGER

@<TRIPOS>ATOM
      1 C          64.7771   91.2362   14.8734 C.ar    1  UNL1        0.1646
      2 N          64.8860   89.9061   14.1885 N.ar    1  UNL1       -0.2224
      3 C          64.0594   88.9192   14.9585 C.ar    1  UNL1        0.1074
      4 C          63.4397   89.6393   16.1192 C.ar    1  UNL1        0.0588
      5 S          63.8832   91.0713   16.0667 S.2     1  UNL1       -0.0508
      6 C          63.8835   87.4671   14.6260 C.ar    1  UNL1        0.1026
      7 C          64.1354   86.4223   15.6724 C.ar    1  UNL1        0.0224
      8 C          63.9595   84.9703   15.3400 C.ar    1  UNL1        0.0239
      9 C          63.5318   84.5629   13.9612 C.ar    1  UNL1        0.1189
     10 C          63.2799   85.6077   12.9148 C.ar    1  UNL1        0.2416
     11 N          63.4557   87.0599   13.2472 N.ar    1  UNL1       -0.2089
     12 N          63.3559   83.1109   13.6287 N.ar    1  UNL1       -0.2826
     13 C          64.2295   82.3034   12.7151 C.ar    1  UNL1        0.1826
     14 N          63.6890   80.9048   12.6733 N.ar    1  UNL1       -0.2280
     15 C          62.4813   80.8479   13.5611 C.ar    1  UNL1        0.0786
     16 C          61.6291   79.6396   13.8140 C.3     1  UNL1        0.0538
     17 C          62.2754   82.2113   14.1516 C.ar    1  UNL1        0.0963
     18 O          62.8521   85.2005   11.5360 O.3     1  UNL1       -0.4551
     19 C          61.6344   85.8186   10.9153 C.3     1  UNL1        0.2543
     20 N          65.4448   92.5079   14.4410 N.pl3   1  UNL1       -0.2786
     21 H          65.1662   93.3676   14.8315 H       1  UNL1        0.1555
     22 N          67.9370   91.9779   13.6331 N.ar    1  UNL1       -0.2383
     23 N          68.6863   92.1208   12.3414 N.ar    1  UNL1       -0.1729
     24 C          67.7493   92.7008   11.3237 C.ar    1  UNL1        0.0766
     25 C          66.4209   92.9164   11.9864 C.ar    1  UNL1        0.0244
     26 C          66.5370   92.4696   13.4136 C.ar    1  UNL1        0.1275
     27 C          65.4839   93.4964   10.9687 C.3     1  UNL1        0.0308
     28 C          66.2332   93.6393    9.6771 C.3     1  UNL1        0.0104
     29 C          67.6332   93.1475    9.8965 C.3     1  UNL1        0.0372
     30 C          67.8180   93.5072    8.4521 C.3     1  UNL1        0.0060
     31 C          69.0719   92.7310    9.8140 C.3     1  UNL1        0.0060
     32 C          68.7144   92.3566   16.0829 C.3     1  UNL1        0.0285
     33 C          68.4906   91.4381   14.9183 C.3     1  UNL1        0.1289
@<TRIPOS>BOND
     1    32    33    1
     2    33    22    1
     3    22    23   ar
     4    23    24   ar
     5    24    25   ar
     6    25    26   ar
     7    26    20    1
     8    20     1    1
     9     1     2   ar
    10     2     3   ar
    11     3     6    1
    12     6     7   ar
    13     7     8   ar
    14     8     9   ar
    15     9    12    1
    16    12    13   ar
    17    13    14   ar
    18    14    15   ar
    19    15    16    1
    20    15    17   ar
    21     9    10   ar
    22    10    18    1
    23    18    19    1
    24    10    11   ar
    25     3     4   ar
    26     4     5   ar
    27    25    27    1
    28    27    28    1
    29    28    29    1
    30    29    30    1
    31    29    31    1
    32    26    22   ar
    33     5     1   ar
    34    29    24    1
    35    11     6   ar
    36    17    12   ar
    37    20    21    1
@<TRIPOS>MOLECULE
*****
 33 37 0 0 0
SMALL
GASTEIGER

@<TRIPOS>ATOM
      1 C          63.4683   88.8962   16.3907 C.ar    1  UNL1        0.1646
      2 N          63.5490   87.9088   15.2643 N.ar    1  UNL1       -0.2224
      3 C          63.1070   86.5737   15.7857 C.ar    1  UNL1        0.1074
      4 C          62.7532   86.7358   17.2343 C.ar    1  UNL1        0.0588
      5 S          62.9765   88.1712   17.6082 S.2     1  UNL1       -0.0508
      6 C          63.0320   85.3000   14.9970 C.ar    1  UNL1        0.1026
      7 C          62.8441   83.9902   15.7036 C.ar    1  UNL1        0.0224
      8 C          62.7691   82.7165   14.9149 C.ar    1  UNL1        0.0239
      9 C          62.8821   82.7525   13.4196 C.ar    1  UNL1        0.1189
     10 C          63.0700   84.0622   12.7130 C.ar    1  UNL1        0.2416
     11 N          63.1450   85.3360   13.5017 N.ar    1  UNL1       -0.2089
     12 N          62.8071   81.4788   12.6309 N.ar    1  UNL1       -0.2826
     13 C          62.4630   80.1239   13.1747 C.ar    1  UNL1        0.1826
     14 N          62.5063   79.1442   12.0397 N.ar    1  UNL1       -0.2280
     15 C          62.8772   79.8936   10.7944 C.ar    1  UNL1        0.0786
     16 C          63.0345   79.3036    9.4243 C.3     1  UNL1        0.0538
     17 C          63.0630   81.3365   11.1597 C.ar    1  UNL1        0.0963
     18 O          63.1829   84.0983   11.2177 O.3     1  UNL1       -0.4551
     19 C          62.5557   85.2206   10.4450 C.3     1  UNL1        0.2543
     20 N          63.8181   90.3528   16.3131 N.pl3   1  UNL1       -0.2786
     21 H          63.7724   90.9137   17.1209 H       1  UNL1        0.1555
     22 N          65.3802   91.9039   14.7969 N.ar    1  UNL1       -0.2383
     23 N          65.4367   92.2490   13.3382 N.ar    1  UNL1       -0.1729
     24 C          64.3289   91.5131   12.6446 C.ar    1  UNL1        0.0766
     25 C          63.5877   90.7132   13.6745 C.ar    1  UNL1        0.0244
     26 C          64.2374   90.9547   15.0047 C.ar    1  UNL1        0.1275
     27 C          62.4798   89.9773   12.9809 C.3     1  UNL1        0.0308
     28 C          62.5364   90.3224   11.5222 C.3     1  UNL1        0.0104
     29 C          63.6791   91.2716   11.3143 C.3     1  UNL1        0.0372
     30 C          63.2495   91.2265    9.8779 C.3     1  UNL1        0.0060
     31 C          64.7321   92.2113   10.8062 C.3     1  UNL1        0.0060
     32 C          67.7726   92.1208   15.7865 C.3     1  UNL1        0.0285
     33 C          66.3042   92.4177   15.8609 C.3     1  UNL1        0.1289
@<TRIPOS>BOND
     1    32    33    1
     2    33    22    1
     3    22    23   ar
     4    23    24   ar
     5    24    25   ar
     6    25    26   ar
     7    26    20    1
     8    20     1    1
     9     1     2   ar
    10     2     3   ar
    11     3     6    1
    12     6     7   ar
    13     7     8   ar
    14     8     9   ar
    15     9    12    1
    16    12    13   ar
    17    13    14   ar
    18    14    15   ar
    19    15    16    1
    20    15    17   ar
    21     9    10   ar
    22    10    18    1
    23    18    19    1
    24    10    11   ar
    25     3     4   ar
    26     4     5   ar
    27    25    27    1
    28    27    28    1
    29    28    29    1
    30    29    30    1
    31    29    31    1
    32    26    22   ar
    33     5     1   ar
    34    29    24    1
    35    11     6   ar
    36    17    12   ar
    37    20    21    1
@<TRIPOS>MOLECULE
*****
 33 37 0 0 0
SMALL
GASTEIGER

@<TRIPOS>ATOM
      1 C          58.7958   89.6318    6.2681 C.ar    1  UNL1        0.1646
      2 N          60.0191   90.0283    5.4959 N.ar    1  UNL1       -0.2224
      3 C          59.6841   91.2493    4.6917 C.ar    1  UNL1        0.1074
      4 C          58.2537   91.6076    4.9669 C.ar    1  UNL1        0.0588
      5 S          57.7047   90.6079    5.9412 S.2     1  UNL1       -0.0508
      6 C          60.6159   91.9833    3.7735 C.ar    1  UNL1        0.1026
      7 C          62.0500   91.5577    3.6635 C.ar    1  UNL1        0.0224
      8 C          62.9818   92.2916    2.7453 C.ar    1  UNL1        0.0239
      9 C          62.4796   93.4512    1.9372 C.ar    1  UNL1        0.1189
     10 C          61.0455   93.8768    2.0472 C.ar    1  UNL1        0.2416
     11 N          60.1135   93.1429    2.9654 N.ar    1  UNL1       -0.2089
     12 N          63.4114   94.1852    1.0190 N.ar    1  UNL1       -0.2826
     13 C          63.6050   93.9122   -0.4432 C.ar    1  UNL1        0.1826
     14 N          64.6264   94.8793   -0.9640 N.ar    1  UNL1       -0.2280
     15 C          65.0641   95.7500    0.1763 C.ar    1  UNL1        0.0786
     16 C          66.0752   96.8557    0.1037 C.3     1  UNL1        0.0538
     17 C          64.3131   95.3210    1.4018 C.ar    1  UNL1        0.0963
     18 O          60.5431   95.0364    1.2391 O.3     1  UNL1       -0.4551
     19 C          59.3693   94.8591    0.3222 C.3     1  UNL1        0.2543
     20 N          58.6833   88.4643    7.2031 N.pl3   1  UNL1       -0.2786
     21 H          57.8836   87.8905    7.1801 H       1  UNL1        0.1555
     22 N          60.6588   86.9488    8.1754 N.ar    1  UNL1       -0.2383
     23 N          61.6267   87.0708    9.3149 N.ar    1  UNL1       -0.1729
     24 C          61.3552   88.3684   10.0167 C.ar    1  UNL1        0.0766
     25 C          60.2196   89.0484    9.3111 C.ar    1  UNL1        0.0244
     26 C          59.7892   88.1710    8.1731 C.ar    1  UNL1        0.1275
     27 C          59.9480   90.3459   10.0129 C.3     1  UNL1        0.0308
     28 C          60.9159   90.4679   11.1523 C.3     1  UNL1        0.0104
     29 C          61.7856   89.2458   11.1547 C.3     1  UNL1        0.0372
     30 C          62.4258   89.8960   12.3452 C.3     1  UNL1        0.0060
     31 C          62.7892   88.1596   11.4060 C.3     1  UNL1        0.0060
     32 C          61.7777   84.9438    6.9598 C.3     1  UNL1        0.0285
     33 C          60.5753   85.8054    7.2082 C.3     1  UNL1        0.1289
@<TRIPOS>BOND
     1    32    33    1
     2    33    22    1
     3    22    23   ar
     4    23    24   ar
     5    24    25   ar
     6    25    26   ar
     7    26    20    1
     8    20     1    1
     9     1     2   ar
    10     2     3   ar
    11     3     6    1
    12     6     7   ar
    13     7     8   ar
    14     8     9   ar
    15     9    12    1
    16    12    13   ar
    17    13    14   ar
    18    14    15   ar
    19    15    16    1
    20    15    17   ar
    21     9    10   ar
    22    10    18    1
    23    18    19    1
    24    10    11   ar
    25     3     4   ar
    26     4     5   ar
    27    25    27    1
    28    27    28    1
    29    28    29    1
    30    29    30    1
    31    29    31    1
    32    26    22   ar
    33     5     1   ar
    34    29    24    1
    35    11     6   ar
    36    17    12   ar
    37    20    21    1
@<TRIPOS>MOLECULE
*****
 33 37 0 0 0
SMALL
GASTEIGER

@<TRIPOS>ATOM
      1 C          65.3768   92.2755   14.3055 C.ar    1  UNL1        0.1646
      2 N          65.2613   90.9916   13.5385 N.ar    1  UNL1       -0.2224
      3 C          64.5269   90.0039   14.3959 C.ar    1  UNL1        0.1074
      4 C          64.1885   90.6774   15.6928 C.ar    1  UNL1        0.0588
      5 S          64.7137   92.0813   15.6369 S.2     1  UNL1       -0.0508
      6 C          64.1902   88.5908   14.0221 C.ar    1  UNL1        0.1026
      7 C          64.5889   87.4609   14.9245 C.ar    1  UNL1        0.0224
      8 C          64.2521   86.0479   14.5507 C.ar    1  UNL1        0.0239
      9 C          63.5166   85.7646   13.2744 C.ar    1  UNL1        0.1189
     10 C          63.1179   86.8945   12.3720 C.ar    1  UNL1        0.2416
     11 N          63.4546   88.3076   12.7458 N.ar    1  UNL1       -0.2089
     12 N          63.1798   84.3515   12.9006 N.ar    1  UNL1       -0.2826
     13 C          62.3933   83.3828   13.7330 C.ar    1  UNL1        0.1826
     14 N          62.2978   82.0916   12.9755 N.ar    1  UNL1       -0.2280
     15 C          63.0254   82.2624   11.6749 C.ar    1  UNL1        0.0786
     16 C          63.1805   81.2195   10.6079 C.3     1  UNL1        0.0538
     17 C          63.5705   83.6591   11.6286 C.ar    1  UNL1        0.0963
     18 O          62.3824   86.6113   11.0958 O.3     1  UNL1       -0.4551
     19 C          61.7296   87.7318   10.3419 C.3     1  UNL1        0.2543
     20 N          66.0390   93.5329   13.8253 N.pl3   1  UNL1       -0.2786
     21 H          66.0980   94.3158   14.4192 H       1  UNL1        0.1555
     22 N          67.6498   92.6762   11.8717 N.ar    1  UNL1       -0.2383
     23 N          67.9258   93.1037   10.4606 N.ar    1  UNL1       -0.1729
     24 C          67.0579   94.2889   10.1572 C.ar    1  UNL1        0.0766
     25 C          66.2455   94.5939   11.3806 C.ar    1  UNL1        0.0244
     26 C          66.6112   93.5973   12.4403 C.ar    1  UNL1        0.1275
     27 C          65.3776   95.7791   11.0771 C.3     1  UNL1        0.0308
     28 C          65.6537   96.2066    9.6661 C.3     1  UNL1        0.0104
     29 C          66.6922   95.2856    9.0975 C.3     1  UNL1        0.0372
     30 C          66.5367   96.1264    7.8651 C.3     1  UNL1        0.0060
     31 C          67.6982   94.5403    8.2713 C.3     1  UNL1        0.0060
     32 C          68.9956   91.7598   13.8962 C.3     1  UNL1        0.0285
     33 C          68.2983   91.5292   12.5883 C.3     1  UNL1        0.1289
@<TRIPOS>BOND
     1    32    33    1
     2    33    22    1
     3    22    23   ar
     4    23    24   ar
     5    24    25   ar
     6    25    26   ar
     7    26    20    1
     8    20     1    1
     9     1     2   ar
    10     2     3   ar
    11     3     6    1
    12     6     7   ar
    13     7     8   ar
    14     8     9   ar
    15     9    12    1
    16    12    13   ar
    17    13    14   ar
    18    14    15   ar
    19    15    16    1
    20    15    17   ar
    21     9    10   ar
    22    10    18    1
    23    18    19    1
    24    10    11   ar
    25     3     4   ar
    26     4     5   ar
    27    25    27    1
    28    27    28    1
    29    28    29    1
    30    29    30    1
    31    29    31    1
    32    26    22   ar
    33     5     1   ar
    34    29    24    1
    35    11     6   ar
    36    17    12   ar
    37    20    21    1
@<TRIPOS>MOLECULE
*****
 33 37 0 0 0
SMALL
GASTEIGER

@<TRIPOS>ATOM
      1 C          59.0695   92.0353    4.6403 C.ar    1  UNL1        0.1646
      2 N          60.0347   91.2938    5.5170 N.ar    1  UNL1       -0.2224
      3 C          59.2772   90.2131    6.2301 C.ar    1  UNL1        0.1074
      4 C          57.8439   90.2867    5.7941 C.ar    1  UNL1        0.0588
      5 S          57.7155   91.4129    4.8116 S.2     1  UNL1       -0.0508
      6 C          59.8522   89.2312    7.2075 C.ar    1  UNL1        0.1026
      7 C          59.5764   87.7655    7.0482 C.ar    1  UNL1        0.0224
      8 C          60.1513   86.7835    8.0255 C.ar    1  UNL1        0.0239
      9 C          61.0021   87.2674    9.1623 C.ar    1  UNL1        0.1189
     10 C          61.2779   88.7332    9.3215 C.ar    1  UNL1        0.2416
     11 N          60.7030   89.7152    8.3441 N.ar    1  UNL1       -0.2089
     12 N          61.5771   86.2855   10.1397 N.ar    1  UNL1       -0.2826
     13 C          61.3081   86.2496   11.6149 C.ar    1  UNL1        0.1826
     14 N          62.0868   85.1090   12.2004 N.ar    1  UNL1       -0.2280
     15 C          62.8370   84.4401   11.0870 C.ar    1  UNL1        0.0786
     16 C          63.7431   83.2525   11.2233 C.3     1  UNL1        0.0538
     17 C          62.5219   85.1672    9.8134 C.ar    1  UNL1        0.0963
     18 O          62.1287   89.2171   10.4582 O.3     1  UNL1       -0.4551
     19 C          62.6900   90.6079   10.4357 C.3     1  UNL1        0.2543
     20 N          59.4002   93.1955    3.7490 N.pl3   1  UNL1       -0.2786
     21 H          59.1065   94.1030    3.9928 H       1  UNL1        0.1555
     22 N          61.5250   92.3198    2.3839 N.ar    1  UNL1       -0.2383
     23 N          61.9257   92.3078    0.9384 N.ar    1  UNL1       -0.1729
     24 C          60.8269   92.9535    0.1474 C.ar    1  UNL1        0.0766
     25 C          59.7471   93.3646    1.1039 C.ar    1  UNL1        0.0244
     26 C          60.1785   92.9730    2.4861 C.ar    1  UNL1        0.1275
     27 C          58.6483   94.0104    0.3130 C.3     1  UNL1        0.0308
     28 C          59.0490   93.9983   -1.1325 C.3     1  UNL1        0.0104
     29 C          60.3954   93.3451   -1.2348 C.3     1  UNL1        0.0372
     30 C          60.2387   93.6118   -2.7025 C.3     1  UNL1        0.0060
     31 C          61.7091   92.7477   -1.6440 C.3     1  UNL1        0.0060
     32 C          63.4564   90.8205    3.2621 C.3     1  UNL1        0.0285
     33 C          62.3294   91.7745    3.5263 C.3     1  UNL1        0.1289
@<TRIPOS>BOND
     1    32    33    1
     2    33    22    1
     3    22    23   ar
     4    23    24   ar
     5    24    25   ar
     6    25    26   ar
     7    26    20    1
     8    20     1    1
     9     1     2   ar
    10     2     3   ar
    11     3     6    1
    12     6     7   ar
    13     7     8   ar
    14     8     9   ar
    15     9    12    1
    16    12    13   ar
    17    13    14   ar
    18    14    15   ar
    19    15    16    1
    20    15    17   ar
    21     9    10   ar
    22    10    18    1
    23    18    19    1
    24    10    11   ar
    25     3     4   ar
    26     4     5   ar
    27    25    27    1
    28    27    28    1
    29    28    29    1
    30    29    30    1
    31    29    31    1
    32    26    22   ar
    33     5     1   ar
    34    29    24    1
    35    11     6   ar
    36    17    12   ar
    37    20    21    1
@<TRIPOS>MOLECULE
*****
 33 37 0 0 0
SMALL
GASTEIGER

@<TRIPOS>ATOM
      1 C          58.8124   89.7489    6.1865 C.ar    1  UNL1        0.1646
      2 N          60.0513   90.0801    5.4083 N.ar    1  UNL1       -0.2224
      3 C          59.7797   91.3209    4.6104 C.ar    1  UNL1        0.1074
      4 C          58.3729   91.7565    4.8954 C.ar    1  UNL1        0.0588
      5 S          57.7751   90.7850    5.8694 S.2     1  UNL1       -0.0508
      6 C          60.7453   92.0058    3.6892 C.ar    1  UNL1        0.1026
      7 C          62.1473   91.4901    3.5543 C.ar    1  UNL1        0.0224
      8 C          63.1130   92.1748    2.6332 C.ar    1  UNL1        0.0239
      9 C          62.6766   93.3754    1.8469 C.ar    1  UNL1        0.1189
     10 C          61.2745   93.8911    1.9818 C.ar    1  UNL1        0.2416
     11 N          60.3088   93.2063    2.9030 N.ar    1  UNL1       -0.2089
     12 N          63.6422   94.0603    0.9257 N.ar    1  UNL1       -0.2826
     13 C          65.0112   94.5526    1.2910 C.ar    1  UNL1        0.1826
     14 N          65.6234   95.1696    0.0686 N.ar    1  UNL1       -0.2280
     15 C          64.6328   95.0587   -1.0522 C.ar    1  UNL1        0.0786
     16 C          64.8317   95.5476   -2.4564 C.3     1  UNL1        0.0538
     17 C          63.4083   94.3731   -0.5225 C.ar    1  UNL1        0.0963
     18 O          60.8381   95.0917    1.1956 O.3     1  UNL1       -0.4551
     19 C          59.5636   95.0482    0.4058 C.3     1  UNL1        0.2543
     20 N          58.6410   88.5858    7.1180 N.pl3   1  UNL1       -0.2786
     21 H          57.7806   88.1088    7.1567 H       1  UNL1        0.1555
     22 N          60.3136   88.8910    9.1806 N.ar    1  UNL1       -0.2383
     23 N          61.4494   88.0949    9.7519 N.ar    1  UNL1       -0.1729
     24 C          61.6181   86.8615    8.9150 C.ar    1  UNL1        0.0766
     25 C          60.5865   86.8953    7.8265 C.ar    1  UNL1        0.0244
     26 C          59.7804   88.1495    7.9906 C.ar    1  UNL1        0.1275
     27 C          60.7552   85.6619    6.9896 C.3     1  UNL1        0.0308
     28 C          61.8909   84.8659    7.5609 C.3     1  UNL1        0.0104
     29 C          62.4242   85.6073    8.7509 C.3     1  UNL1        0.0372
     30 C          63.3838   84.4578    8.8394 C.3     1  UNL1        0.0060
     31 C          63.1581   86.1084    9.9593 C.3     1  UNL1        0.0060
     32 C          59.7671   90.4508   11.1850 C.3     1  UNL1        0.0285
     33 C          59.8011   90.1988    9.7068 C.3     1  UNL1        0.1289
@<TRIPOS>BOND
     1    32    33    1
     2    33    22    1
     3    22    23   ar
     4    23    24   ar
     5    24    25   ar
     6    25    26   ar
     7    26    20    1
     8    20     1    1
     9     1     2   ar
    10     2     3   ar
    11     3     6    1
    12     6     7   ar
    13     7     8   ar
    14     8     9   ar
    15     9    12    1
    16    12    13   ar
    17    13    14   ar
    18    14    15   ar
    19    15    16    1
    20    15    17   ar
    21     9    10   ar
    22    10    18    1
    23    18    19    1
    24    10    11   ar
    25     3     4   ar
    26     4     5   ar
    27    25    27    1
    28    27    28    1
    29    28    29    1
    30    29    30    1
    31    29    31    1
    32    26    22   ar
    33     5     1   ar
    34    29    24    1
    35    11     6   ar
    36    17    12   ar
    37    20    21    1
