@<TRIPOS>MOLECULE
*****
 24 26 0 0 0
SMALL
GASTEIGER

@<TRIPOS>ATOM
      1 C          61.5082   80.6873   14.1520 C.3     1  UNL1        0.0523
      2 C          62.3925   81.8554   13.8301 C.ar    1  UNL1        0.0650
      3 C          62.6770   82.2092   12.4005 C.ar    1  UNL1        0.0489
      4 C          63.5612   83.3774   12.0787 C.ar    1  UNL1        0.1325
      5 N          64.1609   84.1917   13.1865 N.ar    1  UNL1       -0.1991
      6 C          63.8764   83.8379   14.6161 C.ar    1  UNL1        0.2179
      7 N          62.9922   82.6697   14.9379 N.ar    1  UNL1       -0.2181
      8 N          63.8458   83.7312   10.6490 N.pl3   1  UNL1       -0.3196
      9 H          64.6491   83.3758   10.2044 H       1  UNL1        0.1481
     10 C          62.9063   84.6264    9.8967 C.3     1  UNL1        0.0704
     11 C          61.9025   85.4556   10.6416 C.3     1  UNL1        0.0195
     12 C          60.9630   86.3509    9.8893 C.3     1  UNL1        0.0017
     13 C          61.0274   86.4169    8.3921 C.3     1  UNL1        0.0001
     14 C          62.0312   85.5877    7.6473 C.3     1  UNL1        0.0017
     15 C          62.9706   84.6925    8.3996 C.3     1  UNL1        0.0195
     16 N          64.4761   84.6522   15.7239 N.pl3   1  UNL1       -0.2990
     17 H          65.4222   84.5308   15.9675 H       1  UNL1        0.1500
     18 C          63.6343   85.6515   16.4606 C.3     1  UNL1        0.1165
     19 C          63.6806   87.1004   16.0753 C.ar    1  UNL1       -0.0026
     20 C          64.3374   87.5146   14.7919 C.ar    1  UNL1       -0.0026
     21 C          64.3837   88.9635   14.4067 C.ar    1  UNL1       -0.0003
     22 C          63.7732   89.9983   15.3048 C.ar    1  UNL1       -0.0000
     23 C          63.1165   89.5841   16.5882 C.ar    1  UNL1       -0.0003
     24 C          63.0702   88.1352   16.9734 C.ar    1  UNL1       -0.0026
@<TRIPOS>BOND
     1     1     2    1
     2     2     3   ar
     3     3     4   ar
     4     4     8    1
     5     8    10    1
     6    10    11    1
     7    11    12    1
     8    12    13    1
     9    13    14    1
    10    14    15    1
    11     4     5   ar
    12     5     6   ar
    13     6    16    1
    14    16    18    1
    15    18    19    1
    16    19    20   ar
    17    20    21   ar
    18    21    22   ar
    19    22    23   ar
    20    23    24   ar
    21     6     7   ar
    22     7     2   ar
    23    15    10    1
    24    24    19   ar
    25     8     9    1
    26    16    17    1
@<TRIPOS>MOLECULE
*****
 24 26 0 0 0
SMALL
GASTEIGER

@<TRIPOS>ATOM
      1 C          61.1693   81.0837   14.1931 C.3     1  UNL1        0.0523
      2 C          62.2884   82.0672   14.0187 C.ar    1  UNL1        0.0650
      3 C          62.6576   82.9901   15.1420 C.ar    1  UNL1        0.0489
      4 C          63.7766   83.9737   14.9676 C.ar    1  UNL1        0.1325
      5 N          64.5264   84.0343   13.6699 N.ar    1  UNL1       -0.1991
      6 C          64.1572   83.1115   12.5466 C.ar    1  UNL1        0.2179
      7 N          63.0381   82.1279   12.7210 N.ar    1  UNL1       -0.2181
      8 N          64.1458   84.8966   16.0910 N.pl3   1  UNL1       -0.3196
      9 H          64.5220   84.5317   16.9244 H       1  UNL1        0.1481
     10 C          63.9420   86.3754   15.9445 C.3     1  UNL1        0.0704
     11 C          64.4983   87.0947   14.7514 C.3     1  UNL1        0.0195
     12 C          64.2944   88.5735   14.6049 C.3     1  UNL1        0.0017
     13 C          63.5342   89.3331   15.6515 C.3     1  UNL1        0.0001
     14 C          62.9779   88.6139   16.8444 C.3     1  UNL1        0.0017
     15 C          63.1818   87.1350   16.9909 C.3     1  UNL1        0.0195
     16 N          64.9070   83.1721   11.2488 N.pl3   1  UNL1       -0.2990
     17 H          65.8904   83.1277   11.2459 H       1  UNL1        0.1500
     18 C          64.1583   83.3003    9.9553 C.3     1  UNL1        0.1165
     19 C          63.1736   84.4160    9.7661 C.ar    1  UNL1       -0.0026
     20 C          62.4426   84.9798   10.9483 C.ar    1  UNL1       -0.0026
     21 C          61.4580   86.0954   10.7591 C.ar    1  UNL1       -0.0003
     22 C          61.2044   86.6473    9.3875 C.ar    1  UNL1       -0.0000
     23 C          61.9354   86.0835    8.2053 C.ar    1  UNL1       -0.0003
     24 C          62.9200   84.9679    8.3946 C.ar    1  UNL1       -0.0026
@<TRIPOS>BOND
     1     1     2    1
     2     2     3   ar
     3     3     4   ar
     4     4     8    1
     5     8    10    1
     6    10    11    1
     7    11    12    1
     8    12    13    1
     9    13    14    1
    10    14    15    1
    11     4     5   ar
    12     5     6   ar
    13     6    16    1
    14    16    18    1
    15    18    19    1
    16    19    20   ar
    17    20    21   ar
    18    21    22   ar
    19    22    23   ar
    20    23    24   ar
    21     6     7   ar
    22     7     2   ar
    23    15    10    1
    24    24    19   ar
    25     8     9    1
    26    16    17    1
@<TRIPOS>MOLECULE
*****
 24 26 0 0 0
SMALL
GASTEIGER

@<TRIPOS>ATOM
      1 C          62.3937   80.4100   13.1557 C.3     1  UNL1        0.0523
      2 C          62.7629   81.8608   13.0614 C.ar    1  UNL1        0.0650
      3 C          63.4408   82.5387   14.2151 C.ar    1  UNL1        0.0489
      4 C          63.8100   83.9895   14.1208 C.ar    1  UNL1        0.1325
      5 N          63.5014   84.7624   12.8729 N.ar    1  UNL1       -0.1991
      6 C          62.8235   84.0845   11.7192 C.ar    1  UNL1        0.2179
      7 N          62.4543   82.6337   11.8135 N.ar    1  UNL1       -0.2181
      8 N          64.4879   84.6674   15.2745 N.pl3   1  UNL1       -0.3196
      9 H          65.2161   84.2110   15.7548 H       1  UNL1        0.1481
     10 C          64.0563   86.0407   15.6963 C.3     1  UNL1        0.0704
     11 C          64.4502   87.2349   14.8786 C.3     1  UNL1        0.0195
     12 C          64.0186   88.6081   15.3004 C.3     1  UNL1        0.0017
     13 C          63.1931   88.7871   16.5400 C.3     1  UNL1        0.0001
     14 C          62.7992   87.5929   17.3577 C.3     1  UNL1        0.0017
     15 C          63.2308   86.2197   16.9359 C.3     1  UNL1        0.0195
     16 N          62.5148   84.8574   10.4712 N.pl3   1  UNL1       -0.2990
     17 H          62.5011   84.3999    9.5996 H       1  UNL1        0.1500
     18 C          62.2270   86.3273   10.5513 C.3     1  UNL1        0.1165
     19 C          61.2670   86.9573    9.5861 C.ar    1  UNL1       -0.0026
     20 C          60.4714   86.0966    8.6500 C.ar    1  UNL1       -0.0026
     21 C          59.5114   86.7266    7.6850 C.ar    1  UNL1       -0.0003
     22 C          59.3469   88.2173    7.6559 C.ar    1  UNL1       -0.0000
     23 C          60.1424   89.0780    8.5920 C.ar    1  UNL1       -0.0003
     24 C          61.1025   88.4480    9.5571 C.ar    1  UNL1       -0.0026
@<TRIPOS>BOND
     1     1     2    1
     2     2     3   ar
     3     3     4   ar
     4     4     8    1
     5     8    10    1
     6    10    11    1
     7    11    12    1
     8    12    13    1
     9    13    14    1
    10    14    15    1
    11     4     5   ar
    12     5     6   ar
    13     6    16    1
    14    16    18    1
    15    18    19    1
    16    19    20   ar
    17    20    21   ar
    18    21    22   ar
    19    22    23   ar
    20    23    24   ar
    21     6     7   ar
    22     7     2   ar
    23    15    10    1
    24    24    19   ar
    25     8     9    1
    26    16    17    1
@<TRIPOS>MOLECULE
*****
 24 26 0 0 0
SMALL
GASTEIGER

@<TRIPOS>ATOM
      1 C          65.1870   92.5701   10.8907 C.3     1  UNL1        0.0523
      2 C          64.2240   91.6043   11.5152 C.ar    1  UNL1        0.0650
      3 C          64.3043   91.3089   12.9836 C.ar    1  UNL1        0.0489
      4 C          63.3413   90.3431   13.6081 C.ar    1  UNL1        0.1325
      5 N          62.2980   89.6728   12.7642 N.ar    1  UNL1       -0.1991
      6 C          62.2177   89.9683   11.2958 C.ar    1  UNL1        0.2179
      7 N          63.1807   90.9341   10.6713 N.ar    1  UNL1       -0.2181
      8 N          63.4217   90.0476   15.0765 N.pl3   1  UNL1       -0.3196
      9 H          63.3883   90.7838   15.7293 H       1  UNL1        0.1481
     10 C          63.5530   88.6305   15.5503 C.3     1  UNL1        0.0704
     11 C          62.9278   88.2126   16.8483 C.3     1  UNL1        0.0195
     12 C          63.0591   86.7955   17.3221 C.3     1  UNL1        0.0017
     13 C          63.8155   85.7962   16.4978 C.3     1  UNL1        0.0001
     14 C          64.4406   86.2140   15.1999 C.3     1  UNL1        0.0017
     15 C          64.3093   87.6311   14.7261 C.3     1  UNL1        0.0195
     16 N          61.1743   89.2980   10.4518 N.pl3   1  UNL1       -0.2990
     17 H          60.7841   89.7725    9.6825 H       1  UNL1        0.1500
     18 C          60.7256   87.9049   10.7800 C.3     1  UNL1        0.1165
     19 C          61.5703   86.7313   10.3808 C.ar    1  UNL1       -0.0026
     20 C          61.9634   85.7076   11.4042 C.ar    1  UNL1       -0.0026
     21 C          62.8081   84.5340   11.0051 C.ar    1  UNL1       -0.0003
     22 C          63.2595   84.3842    9.5825 C.ar    1  UNL1       -0.0000
     23 C          62.8664   85.4079    8.5591 C.ar    1  UNL1       -0.0003
     24 C          62.0217   86.5814    8.9582 C.ar    1  UNL1       -0.0026
@<TRIPOS>BOND
     1     1     2    1
     2     2     3   ar
     3     3     4   ar
     4     4     8    1
     5     8    10    1
     6    10    11    1
     7    11    12    1
     8    12    13    1
     9    13    14    1
    10    14    15    1
    11     4     5   ar
    12     5     6   ar
    13     6    16    1
    14    16    18    1
    15    18    19    1
    16    19    20   ar
    17    20    21   ar
    18    21    22   ar
    19    22    23   ar
    20    23    24   ar
    21     6     7   ar
    22     7     2   ar
    23    15    10    1
    24    24    19   ar
    25     8     9    1
    26    16    17    1
@<TRIPOS>MOLECULE
*****
 24 26 0 0 0
SMALL
GASTEIGER

@<TRIPOS>ATOM
      1 C          59.2886   90.7131   11.4249 C.3     1  UNL1        0.0523
      2 C          60.4442   89.7637   11.5403 C.ar    1  UNL1        0.0650
      3 C          60.3211   88.3649   11.0130 C.ar    1  UNL1        0.0489
      4 C          61.4767   87.4155   11.1284 C.ar    1  UNL1        0.1325
      5 N          62.7553   87.8649   11.7711 N.ar    1  UNL1       -0.1991
      6 C          62.8784   89.2638   12.2984 C.ar    1  UNL1        0.2179
      7 N          61.7228   90.2132   12.1830 N.ar    1  UNL1       -0.2181
      8 N          61.3536   86.0166   10.6011 N.pl3   1  UNL1       -0.3196
      9 H          60.5926   85.7724   10.0263 H       1  UNL1        0.1481
     10 C          62.3902   84.9899   10.9494 C.3     1  UNL1        0.0704
     11 C          62.6033   84.5949   12.3808 C.3     1  UNL1        0.0195
     12 C          63.6399   83.5682   12.7292 C.3     1  UNL1        0.0017
     13 C          64.4633   82.9364   11.6462 C.3     1  UNL1        0.0001
     14 C          64.2502   83.3314   10.2149 C.3     1  UNL1        0.0017
     15 C          63.2137   84.3581    9.8665 C.3     1  UNL1        0.0195
     16 N          64.1570   89.7133   12.9412 N.pl3   1  UNL1       -0.2990
     17 H          64.9257   89.9693   12.3818 H       1  UNL1        0.1500
     18 C          64.2645   89.7728   14.4361 C.3     1  UNL1        0.1165
     19 C          63.9411   88.5617   15.2601 C.ar    1  UNL1       -0.0026
     20 C          63.1604   88.7071   16.5327 C.ar    1  UNL1       -0.0026
     21 C          62.8371   87.4961   17.3566 C.ar    1  UNL1       -0.0003
     22 C          63.2944   86.1397   16.9079 C.ar    1  UNL1       -0.0000
     23 C          64.0750   85.9944   15.6354 C.ar    1  UNL1       -0.0003
     24 C          64.3984   87.2054   14.8115 C.ar    1  UNL1       -0.0026
@<TRIPOS>BOND
     1     1     2    1
     2     2     3   ar
     3     3     4   ar
     4     4     8    1
     5     8    10    1
     6    10    11    1
     7    11    12    1
     8    12    13    1
     9    13    14    1
    10    14    15    1
    11     4     5   ar
    12     5     6   ar
    13     6    16    1
    14    16    18    1
    15    18    19    1
    16    19    20   ar
    17    20    21   ar
    18    21    22   ar
    19    22    23   ar
    20    23    24   ar
    21     6     7   ar
    22     7     2   ar
    23    15    10    1
    24    24    19   ar
    25     8     9    1
    26    16    17    1
@<TRIPOS>MOLECULE
*****
 24 26 0 0 0
SMALL
GASTEIGER

@<TRIPOS>ATOM
      1 C          65.5653   92.6506   10.4545 C.3     1  UNL1        0.0523
      2 C          64.3901   91.8949   11.0001 C.ar    1  UNL1        0.0650
      3 C          63.2934   91.4474   10.0799 C.ar    1  UNL1        0.0489
      4 C          62.1181   90.6917   10.6255 C.ar    1  UNL1        0.1325
      5 N          62.0395   90.3835   12.0913 N.ar    1  UNL1       -0.1991
      6 C          63.1362   90.8310   13.0116 C.ar    1  UNL1        0.2179
      7 N          64.3115   91.5867   12.4660 N.ar    1  UNL1       -0.2181
      8 N          61.0213   90.2442    9.7051 N.pl3   1  UNL1       -0.3196
      9 H          60.3426   90.8881    9.3985 H       1  UNL1        0.1481
     10 C          60.9587   88.8157    9.2520 C.3     1  UNL1        0.0704
     11 C          59.8279   88.3539    8.3812 C.3     1  UNL1        0.0195
     12 C          59.7653   86.9254    7.9281 C.3     1  UNL1        0.0017
     13 C          60.8335   85.9586    8.3457 C.3     1  UNL1        0.0001
     14 C          61.9642   86.4203    9.2164 C.3     1  UNL1        0.0017
     15 C          62.0268   87.8489    9.6696 C.3     1  UNL1        0.0195
     16 N          63.0577   90.5228   14.4776 N.pl3   1  UNL1       -0.2990
     17 H          62.2932   90.8445   15.0079 H       1  UNL1        0.1500
     18 C          64.1440   89.7245   15.1353 C.3     1  UNL1        0.1165
     19 C          63.8442   88.3623   15.6873 C.ar    1  UNL1       -0.0026
     20 C          63.0486   88.2236   16.9513 C.ar    1  UNL1       -0.0026
     21 C          62.7489   86.8615   17.5032 C.ar    1  UNL1       -0.0003
     22 C          63.2449   85.6380   16.7911 C.ar    1  UNL1       -0.0000
     23 C          64.0406   85.7766   15.5272 C.ar    1  UNL1       -0.0003
     24 C          64.3402   87.1388   14.9753 C.ar    1  UNL1       -0.0026
@<TRIPOS>BOND
     1     1     2    1
     2     2     3   ar
     3     3     4   ar
     4     4     8    1
     5     8    10    1
     6    10    11    1
     7    11    12    1
     8    12    13    1
     9    13    14    1
    10    14    15    1
    11     4     5   ar
    12     5     6   ar
    13     6    16    1
    14    16    18    1
    15    18    19    1
    16    19    20   ar
    17    20    21   ar
    18    21    22   ar
    19    22    23   ar
    20    23    24   ar
    21     6     7   ar
    22     7     2   ar
    23    15    10    1
    24    24    19   ar
    25     8     9    1
    26    16    17    1
@<TRIPOS>MOLECULE
*****
 24 26 0 0 0
SMALL
GASTEIGER

@<TRIPOS>ATOM
      1 C          62.4210   80.4861   13.1444 C.3     1  UNL1        0.0523
      2 C          62.7452   81.9501   13.1050 C.ar    1  UNL1        0.0650
      3 C          63.3674   82.6129   14.2981 C.ar    1  UNL1        0.0489
      4 C          63.6916   84.0769   14.2587 C.ar    1  UNL1        0.1325
      5 N          63.3935   84.8782   13.0262 N.ar    1  UNL1       -0.1991
      6 C          62.7713   84.2154   11.8331 C.ar    1  UNL1        0.2179
      7 N          62.4472   82.7514   11.8725 N.ar    1  UNL1       -0.2181
      8 N          64.3138   84.7397   15.4519 N.pl3   1  UNL1       -0.3196
      9 H          64.9434   84.2397   16.0201 H       1  UNL1        0.1481
     10 C          63.9768   86.1642   15.7793 C.3     1  UNL1        0.0704
     11 C          63.1961   86.4842   17.0196 C.3     1  UNL1        0.0195
     12 C          62.8591   87.9087   17.3469 C.3     1  UNL1        0.0017
     13 C          63.3027   89.0132   16.4340 C.3     1  UNL1        0.0001
     14 C          64.0833   88.6932   15.1938 C.3     1  UNL1        0.0017
     15 C          64.4203   87.2687   14.8664 C.3     1  UNL1        0.0195
     16 N          62.4732   85.0167   10.6005 N.pl3   1  UNL1       -0.2990
     17 H          62.9995   84.8733    9.7809 H       1  UNL1        0.1500
     18 C          61.3733   86.0364   10.6166 C.3     1  UNL1        0.1165
     19 C          61.7065   87.4986   10.6508 C.ar    1  UNL1       -0.0026
     20 C          61.1114   88.4273    9.6344 C.ar    1  UNL1       -0.0026
     21 C          61.4446   89.8894    9.6686 C.ar    1  UNL1       -0.0003
     22 C          62.3729   90.4227   10.7192 C.ar    1  UNL1       -0.0000
     23 C          62.9681   89.4939   11.7356 C.ar    1  UNL1       -0.0003
     24 C          62.6348   88.0318   11.7014 C.ar    1  UNL1       -0.0026
@<TRIPOS>BOND
     1     1     2    1
     2     2     3   ar
     3     3     4   ar
     4     4     8    1
     5     8    10    1
     6    10    11    1
     7    11    12    1
     8    12    13    1
     9    13    14    1
    10    14    15    1
    11     4     5   ar
    12     5     6   ar
    13     6    16    1
    14    16    18    1
    15    18    19    1
    16    19    20   ar
    17    20    21   ar
    18    21    22   ar
    19    22    23   ar
    20    23    24   ar
    21     6     7   ar
    22     7     2   ar
    23    15    10    1
    24    24    19   ar
    25     8     9    1
    26    16    17    1
@<TRIPOS>MOLECULE
*****
 24 26 0 0 0
SMALL
GASTEIGER

@<TRIPOS>ATOM
      1 C          64.2133   88.5189   14.9067 C.3     1  UNL1        0.0523
      2 C          64.0716   89.4869   13.7696 C.ar    1  UNL1        0.0650
      3 C          64.8985   90.7380   13.7421 C.ar    1  UNL1        0.0489
      4 C          64.7568   91.7059   12.6050 C.ar    1  UNL1        0.1325
      5 N          63.7880   91.4227   11.4954 N.ar    1  UNL1       -0.1991
      6 C          62.9610   90.1716   11.5229 C.ar    1  UNL1        0.2179
      7 N          63.1028   89.2037   12.6600 N.ar    1  UNL1       -0.2181
      8 N          65.5838   92.9570   12.5775 N.pl3   1  UNL1       -0.3196
      9 H          65.6158   93.5434   13.3677 H       1  UNL1        0.1481
     10 C          66.3620   93.3147   11.3461 C.3     1  UNL1        0.0704
     11 C          67.2632   92.2999   10.7073 C.3     1  UNL1        0.0195
     12 C          68.0415   92.6576    9.4759 C.3     1  UNL1        0.0017
     13 C          67.9185   94.0301    8.8833 C.3     1  UNL1        0.0001
     14 C          67.0173   95.0449    9.5221 C.3     1  UNL1        0.0017
     15 C          66.2391   94.6872   10.7535 C.3     1  UNL1        0.0195
     16 N          61.9922   89.8884   10.4132 N.pl3   1  UNL1       -0.2990
     17 H          61.9745   90.4656    9.6159 H       1  UNL1        0.1500
     18 C          61.0504   88.7257   10.5185 C.3     1  UNL1        0.1165
     19 C          61.1175   87.6128    9.5149 C.ar    1  UNL1       -0.0026
     20 C          62.3783   86.8144    9.3636 C.ar    1  UNL1       -0.0026
     21 C          62.4454   85.7016    8.3600 C.ar    1  UNL1       -0.0003
     22 C          61.2517   85.3873    7.5077 C.ar    1  UNL1       -0.0000
     23 C          59.9910   86.1857    7.6590 C.ar    1  UNL1       -0.0003
     24 C          59.9239   87.2985    8.6626 C.ar    1  UNL1       -0.0026
@<TRIPOS>BOND
     1     1     2    1
     2     2     3   ar
     3     3     4   ar
     4     4     8    1
     5     8    10    1
     6    10    11    1
     7    11    12    1
     8    12    13    1
     9    13    14    1
    10    14    15    1
    11     4     5   ar
    12     5     6   ar
    13     6    16    1
    14    16    18    1
    15    18    19    1
    16    19    20   ar
    17    20    21   ar
    18    21    22   ar
    19    22    23   ar
    20    23    24   ar
    21     6     7   ar
    22     7     2   ar
    23    15    10    1
    24    24    19   ar
    25     8     9    1
    26    16    17    1
@<TRIPOS>MOLECULE
*****
 24 26 0 0 0
SMALL
GASTEIGER

@<TRIPOS>ATOM
      1 C          64.2342   88.9485   14.8663 C.3     1  UNL1        0.0523
      2 C          63.9769   89.6684   13.5758 C.ar    1  UNL1        0.0650
      3 C          64.5892   91.0161   13.3338 C.ar    1  UNL1        0.0489
      4 C          64.3319   91.7360   12.0432 C.ar    1  UNL1        0.1325
      5 N          63.4623   91.1081   10.9947 N.ar    1  UNL1       -0.1991
      6 C          62.8500   89.7604   11.2367 C.ar    1  UNL1        0.2179
      7 N          63.1073   89.0405   12.5272 N.ar    1  UNL1       -0.2181
      8 N          64.9443   93.0838   11.8012 N.pl3   1  UNL1       -0.3196
      9 H          64.5664   93.8816   12.2371 H       1  UNL1        0.1481
     10 C          66.1323   93.2160   10.8951 C.3     1  UNL1        0.0704
     11 C          66.3801   94.5036   10.1664 C.3     1  UNL1        0.0195
     12 C          67.5682   94.6358    9.2602 C.3     1  UNL1        0.0017
     13 C          68.5084   93.4805    9.0828 C.3     1  UNL1        0.0001
     14 C          68.2605   92.1930    9.8115 C.3     1  UNL1        0.0017
     15 C          67.0725   92.0608   10.7176 C.3     1  UNL1        0.0195
     16 N          61.9803   89.1325   10.1881 N.pl3   1  UNL1       -0.2990
     17 H          61.8611   89.5759    9.3172 H       1  UNL1        0.1500
     18 C          61.2922   87.8290   10.4664 C.3     1  UNL1        0.1165
     19 C          62.0096   86.5347   10.2210 C.ar    1  UNL1       -0.0026
     20 C          62.2211   85.5689   11.3490 C.ar    1  UNL1       -0.0026
     21 C          62.9385   84.2747   11.1036 C.ar    1  UNL1       -0.0003
     22 C          63.4445   83.9463    9.7302 C.ar    1  UNL1       -0.0000
     23 C          63.2330   84.9122    8.6022 C.ar    1  UNL1       -0.0003
     24 C          62.5156   86.2064    8.8477 C.ar    1  UNL1       -0.0026
@<TRIPOS>BOND
     1     1     2    1
     2     2     3   ar
     3     3     4   ar
     4     4     8    1
     5     8    10    1
     6    10    11    1
     7    11    12    1
     8    12    13    1
     9    13    14    1
    10    14    15    1
    11     4     5   ar
    12     5     6   ar
    13     6    16    1
    14    16    18    1
    15    18    19    1
    16    19    20   ar
    17    20    21   ar
    18    21    22   ar
    19    22    23   ar
    20    23    24   ar
    21     6     7   ar
    22     7     2   ar
    23    15    10    1
    24    24    19   ar
    25     8     9    1
    26    16    17    1
