@<TRIPOS>MOLECULE
*****
 25 28 0 0 0
SMALL
GASTEIGER

@<TRIPOS>ATOM
      1 C          63.3733   89.3876   16.8587 C.3     1  UNL1        0.1363
      2 N          63.4359   88.1013   16.0896 N.ar    1  UNL1       -0.2667
      3 C          63.8489   88.1090   14.6476 C.ar    1  UNL1        0.2035
      4 N          63.9115   86.8227   13.8785 N.ar    1  UNL1       -0.2147
      5 C          63.5612   85.5287   14.5514 C.ar    1  UNL1        0.0911
      6 C          63.1482   85.5210   15.9934 C.ar    1  UNL1        0.0801
      7 C          63.0856   86.8073   16.7625 C.ar    1  UNL1        0.2645
      8 O          62.6726   86.7996   18.2045 O.2     1  UNL1       -0.2668
      9 N          64.1993   89.4030   13.9747 N.pl3   1  UNL1       -0.2761
     10 C          65.1507   90.3573   14.6334 C.3     1  UNL1        0.1256
     11 C          65.5011   91.6514   13.9605 C.3     1  UNL1        0.1635
     12 O          64.9000   91.9910   12.6289 O.3     1  UNL1       -0.3527
     13 C          63.9485   91.0367   11.9701 C.3     1  UNL1        0.1333
     14 C          63.3475   91.3764   10.6384 C.3     1  UNL1        0.0313
     15 C          62.3960   90.4220    9.9797 C.3     1  UNL1        0.0026
     16 C          62.0457   89.1280   10.6526 C.3     1  UNL1        0.0019
     17 C          62.6467   88.7883   11.9842 C.3     1  UNL1        0.0223
     18 C          63.5982   89.7427   12.6430 C.3     1  UNL1        0.1026
     19 C          63.6238   84.2424   13.7822 C.ar    1  UNL1        0.0485
     20 C          63.9884   82.9669   14.4824 C.ar    1  UNL1        0.0244
     21 C          64.0511   81.6807   13.7133 C.ar    1  UNL1        0.0991
     22 N          63.7490   81.6699   12.2441 N.ar    1  UNL1       -0.2400
     23 C          63.3844   82.9453   11.5440 C.ar    1  UNL1        0.1285
     24 C          63.3217   84.2316   12.3130 C.ar    1  UNL1        0.1606
     25 F          62.9571   85.5071   11.6129 F       1  UNL1       -0.2025
@<TRIPOS>BOND
     1     1     2    1
     2     2     3   ar
     3     3     9    1
     4     9    10    1
     5    10    11    1
     6    11    12    1
     7    12    13    1
     8    13    14    1
     9    14    15    1
    10    15    16    1
    11    16    17    1
    12    18    17    1
    13     3     4   ar
    14     4     5   ar
    15     5    19    1
    16    19    20   ar
    17    20    21   ar
    18    21    22   ar
    19    22    23   ar
    20    23    24   ar
    21    24    25    1
    22     5     6   ar
    23     6     7   ar
    24     7     8    2
    25     7     2   ar
    26    18     9    1
    27    24    19   ar
    28    18    13    1
@<TRIPOS>MOLECULE
*****
 25 28 0 0 0
SMALL
GASTEIGER

@<TRIPOS>ATOM
      1 C          61.0350   90.1086   10.4667 C.3     1  UNL1        0.1363
      2 N          61.5115   88.7573   10.9104 N.ar    1  UNL1       -0.2667
      3 C          62.6987   88.6421   11.8201 C.ar    1  UNL1        0.2035
      4 N          63.1752   87.2909   12.2638 N.ar    1  UNL1       -0.2147
      5 C          62.4648   86.0547   11.7978 C.ar    1  UNL1        0.0911
      6 C          61.2777   86.1699   10.8881 C.ar    1  UNL1        0.0801
      7 C          60.8011   87.5212   10.4444 C.ar    1  UNL1        0.2645
      8 O          59.6140   87.6363    9.5347 O.2     1  UNL1       -0.2668
      9 N          63.4092   89.8783   12.2862 N.pl3   1  UNL1       -0.2761
     10 C          63.9791   90.8384   11.2845 C.3     1  UNL1        0.1256
     11 C          64.6896   92.0745   11.7506 C.3     1  UNL1        0.1635
     12 O          64.8301   92.3505   13.2182 O.3     1  UNL1       -0.3527
     13 C          64.2601   91.3904   14.2199 C.3     1  UNL1        0.1333
     14 C          64.4007   91.6665   15.6875 C.3     1  UNL1        0.0313
     15 C          63.8307   90.7064   16.6892 C.3     1  UNL1        0.0026
     16 C          63.1202   89.4702   16.2231 C.3     1  UNL1        0.0019
     17 C          62.9797   89.1942   14.7555 C.3     1  UNL1        0.0223
     18 C          63.5497   90.1543   13.7539 C.3     1  UNL1        0.1026
     19 C          62.9414   84.7034   12.2415 C.ar    1  UNL1        0.0485
     20 C          62.8252   84.3030   13.6824 C.ar    1  UNL1        0.0244
     21 C          63.3018   82.9518   14.1261 C.ar    1  UNL1        0.0991
     22 N          63.8946   82.0009   13.1290 N.ar    1  UNL1       -0.2400
     23 C          64.0108   82.4013   11.6881 C.ar    1  UNL1        0.1285
     24 C          63.5342   83.7525   11.2444 C.ar    1  UNL1        0.1606
     25 F          63.6505   84.1529    9.8035 F       1  UNL1       -0.2025
@<TRIPOS>BOND
     1     1     2    1
     2     2     3   ar
     3     3     9    1
     4     9    10    1
     5    10    11    1
     6    11    12    1
     7    12    13    1
     8    13    14    1
     9    14    15    1
    10    15    16    1
    11    16    17    1
    12    18    17    1
    13     3     4   ar
    14     4     5   ar
    15     5    19    1
    16    19    20   ar
    17    20    21   ar
    18    21    22   ar
    19    22    23   ar
    20    23    24   ar
    21    24    25    1
    22     5     6   ar
    23     6     7   ar
    24     7     8    2
    25     7     2   ar
    26    18     9    1
    27    24    19   ar
    28    18    13    1
@<TRIPOS>MOLECULE
*****
 25 28 0 0 0
SMALL
GASTEIGER

@<TRIPOS>ATOM
      1 C          61.0773   90.8349   11.3935 C.3     1  UNL1        0.1363
      2 N          61.5094   89.3985   11.3817 N.ar    1  UNL1       -0.2667
      3 C          62.6577   88.9536   12.2382 C.ar    1  UNL1        0.2035
      4 N          63.0897   87.5173   12.2264 N.ar    1  UNL1       -0.2147
      5 C          62.3735   86.5257   11.3581 C.ar    1  UNL1        0.0911
      6 C          61.2252   86.9706   10.5017 C.ar    1  UNL1        0.0801
      7 C          60.7931   88.4070   10.5135 C.ar    1  UNL1        0.2645
      8 O          59.6448   88.8518    9.6570 O.2     1  UNL1       -0.2668
      9 N          63.3740   89.9452   13.1064 N.pl3   1  UNL1       -0.2761
     10 C          63.2863   89.8354   14.5998 C.3     1  UNL1        0.1256
     11 C          64.0025   90.8270   15.4680 C.3     1  UNL1        0.1635
     12 O          64.8065   91.9282   14.8429 O.3     1  UNL1       -0.3527
     13 C          64.8942   92.0380   13.3494 C.3     1  UNL1        0.1333
     14 C          65.6981   93.1393   12.7243 C.3     1  UNL1        0.0313
     15 C          65.7858   93.2490   11.2309 C.3     1  UNL1        0.0026
     16 C          65.0696   92.2575   10.3627 C.3     1  UNL1        0.0019
     17 C          64.2656   91.1562   10.9878 C.3     1  UNL1        0.0223
     18 C          64.1779   91.0465   12.4812 C.3     1  UNL1        0.1026
     19 C          62.8056   85.0893   11.3464 C.ar    1  UNL1        0.0485
     20 C          62.7011   84.2645   12.5949 C.ar    1  UNL1        0.0244
     21 C          63.1331   82.8281   12.5831 C.ar    1  UNL1        0.0991
     22 N          63.6697   82.2166   11.3229 N.ar    1  UNL1       -0.2400
     23 C          63.7742   83.0415   10.0745 C.ar    1  UNL1        0.1285
     24 C          63.3421   84.4778   10.0862 C.ar    1  UNL1        0.1606
     25 F          63.4466   85.3027    8.8377 F       1  UNL1       -0.2025
@<TRIPOS>BOND
     1     1     2    1
     2     2     3   ar
     3     3     9    1
     4     9    10    1
     5    10    11    1
     6    11    12    1
     7    12    13    1
     8    13    14    1
     9    14    15    1
    10    15    16    1
    11    16    17    1
    12    18    17    1
    13     3     4   ar
    14     4     5   ar
    15     5    19    1
    16    19    20   ar
    17    20    21   ar
    18    21    22   ar
    19    22    23   ar
    20    23    24   ar
    21    24    25    1
    22     5     6   ar
    23     6     7   ar
    24     7     8    2
    25     7     2   ar
    26    18     9    1
    27    24    19   ar
    28    18    13    1
@<TRIPOS>MOLECULE
*****
 25 28 0 0 0
SMALL
GASTEIGER

@<TRIPOS>ATOM
      1 C          60.5940   86.4208    9.4718 C.3     1  UNL1        0.1363
      2 N          61.3323   87.3438   10.3953 N.ar    1  UNL1       -0.2667
      3 C          62.4533   86.8185   11.2425 C.ar    1  UNL1        0.2035
      4 N          63.1916   87.7414   12.1660 N.ar    1  UNL1       -0.2147
      5 C          62.8091   89.1898   12.2424 C.ar    1  UNL1        0.0911
      6 C          61.6882   89.7152   11.3954 C.ar    1  UNL1        0.0801
      7 C          60.9498   88.7922   10.4718 C.ar    1  UNL1        0.2645
      8 O          59.8289   89.3176    9.6248 O.2     1  UNL1       -0.2668
      9 N          62.8359   85.3701   11.1660 N.pl3   1  UNL1       -0.2761
     10 C          63.2869   84.7813    9.8622 C.3     1  UNL1        0.1256
     11 C          63.6694   83.3329    9.7857 C.3     1  UNL1        0.1635
     12 O          63.6010   82.4733   11.0131 O.3     1  UNL1       -0.3527
     13 C          63.1499   83.0621   12.3169 C.3     1  UNL1        0.1333
     14 C          63.0815   82.2025   13.5442 C.3     1  UNL1        0.0313
     15 C          62.6305   82.7913   14.8480 C.3     1  UNL1        0.0026
     16 C          62.2479   84.2396   14.9245 C.3     1  UNL1        0.0019
     17 C          62.3164   85.0992   13.6972 C.3     1  UNL1        0.0223
     18 C          62.7674   84.5105   12.3934 C.3     1  UNL1        0.1026
     19 C          63.5475   90.1128   13.1660 C.ar    1  UNL1        0.0485
     20 C          63.4146   89.9517   14.6514 C.ar    1  UNL1        0.0244
     21 C          64.1529   90.8746   15.5749 C.ar    1  UNL1        0.0991
     22 N          65.0241   91.9587   15.0131 N.ar    1  UNL1       -0.2400
     23 C          65.1571   92.1198   13.5277 C.ar    1  UNL1        0.1285
     24 C          64.4187   91.1969   12.6042 C.ar    1  UNL1        0.1606
     25 F          64.5516   91.3580   11.1188 F       1  UNL1       -0.2025
@<TRIPOS>BOND
     1     1     2    1
     2     2     3   ar
     3     3     9    1
     4     9    10    1
     5    10    11    1
     6    11    12    1
     7    12    13    1
     8    13    14    1
     9    14    15    1
    10    15    16    1
    11    16    17    1
    12    18    17    1
    13     3     4   ar
    14     4     5   ar
    15     5    19    1
    16    19    20   ar
    17    20    21   ar
    18    21    22   ar
    19    22    23   ar
    20    23    24   ar
    21    24    25    1
    22     5     6   ar
    23     6     7   ar
    24     7     8    2
    25     7     2   ar
    26    18     9    1
    27    24    19   ar
    28    18    13    1
@<TRIPOS>MOLECULE
*****
 25 28 0 0 0
SMALL
GASTEIGER

@<TRIPOS>ATOM
      1 C          64.5278   87.6152   14.5652 C.3     1  UNL1        0.1363
      2 N          63.6554   87.6209   13.3450 N.ar    1  UNL1       -0.2667
      3 C          63.0035   86.3513   12.8832 C.ar    1  UNL1        0.2035
      4 N          62.1311   86.3571   11.6630 N.ar    1  UNL1       -0.2147
      5 C          61.9106   87.6323   10.9046 C.ar    1  UNL1        0.0911
      6 C          62.5625   88.9018   11.3664 C.ar    1  UNL1        0.0801
      7 C          63.4350   88.8962   12.5866 C.ar    1  UNL1        0.2645
      8 O          64.0869   90.1657   13.0484 O.2     1  UNL1       -0.2668
      9 N          63.2240   85.0761   13.6416 N.pl3   1  UNL1       -0.2761
     10 C          63.3921   85.1092   15.1317 C.3     1  UNL1        0.1256
     11 C          63.6125   83.8339   15.8901 C.3     1  UNL1        0.1635
     12 O          63.6649   82.5256   15.1583 O.3     1  UNL1       -0.3527
     13 C          63.4969   82.4925   13.6681 C.3     1  UNL1        0.1333
     14 C          63.5493   81.1842   12.9363 C.3     1  UNL1        0.0313
     15 C          63.3812   81.1511   11.4462 C.3     1  UNL1        0.0026
     16 C          63.1607   82.4264   10.6878 C.3     1  UNL1        0.0019
     17 C          63.1083   83.7347   11.4196 C.3     1  UNL1        0.0223
     18 C          63.2764   83.7677   12.9097 C.3     1  UNL1        0.1026
     19 C          61.0382   87.6380    9.6844 C.ar    1  UNL1        0.0485
     20 C          60.6966   86.3473    9.0007 C.ar    1  UNL1        0.0244
     21 C          59.8242   86.3529    7.7805 C.ar    1  UNL1        0.0991
     22 N          59.2934   87.6492    7.2440 N.ar    1  UNL1       -0.2400
     23 C          59.6351   88.9399    7.9277 C.ar    1  UNL1        0.1285
     24 C          60.5075   88.9343    9.1479 C.ar    1  UNL1        0.1606
     25 F          60.8491   90.2249    9.8315 F       1  UNL1       -0.2025
@<TRIPOS>BOND
     1     1     2    1
     2     2     3   ar
     3     3     9    1
     4     9    10    1
     5    10    11    1
     6    11    12    1
     7    12    13    1
     8    13    14    1
     9    14    15    1
    10    15    16    1
    11    16    17    1
    12    18    17    1
    13     3     4   ar
    14     4     5   ar
    15     5    19    1
    16    19    20   ar
    17    20    21   ar
    18    21    22   ar
    19    22    23   ar
    20    23    24   ar
    21    24    25    1
    22     5     6   ar
    23     6     7   ar
    24     7     8    2
    25     7     2   ar
    26    18     9    1
    27    24    19   ar
    28    18    13    1
@<TRIPOS>MOLECULE
*****
 25 28 0 0 0
SMALL
GASTEIGER

@<TRIPOS>ATOM
      1 C          61.1475   85.8697   10.6162 C.3     1  UNL1        0.1363
      2 N          61.9176   86.9958   11.2398 N.ar    1  UNL1       -0.2667
      3 C          62.7833   86.7395   12.4377 C.ar    1  UNL1        0.2035
      4 N          63.5533   87.8656   13.0613 N.ar    1  UNL1       -0.2147
      5 C          63.4577   89.2480   12.4871 C.ar    1  UNL1        0.0911
      6 C          62.5920   89.5043   11.2893 C.ar    1  UNL1        0.0801
      7 C          61.8219   88.3782   10.6656 C.ar    1  UNL1        0.2645
      8 O          60.9562   88.6345    9.4678 O.2     1  UNL1       -0.2668
      9 N          62.8790   85.3570   13.0119 N.pl3   1  UNL1       -0.2761
     10 C          62.5699   85.1238   14.4611 C.3     1  UNL1        0.1256
     11 C          62.6655   83.7414   15.0353 C.3     1  UNL1        0.1635
     12 O          63.0703   82.5922   14.1604 O.3     1  UNL1       -0.3527
     13 C          63.3795   82.8254   12.7112 C.3     1  UNL1        0.1333
     14 C          63.7843   81.6762   11.8363 C.3     1  UNL1        0.0313
     15 C          64.0934   81.9095   10.3872 C.3     1  UNL1        0.0026
     16 C          63.9977   83.2919    9.8130 C.3     1  UNL1        0.0019
     17 C          63.5929   84.4411   10.6879 C.3     1  UNL1        0.0223
     18 C          63.2838   84.2078   12.1370 C.3     1  UNL1        0.1026
     19 C          64.2278   90.3741   13.1107 C.ar    1  UNL1        0.0485
     20 C          64.7568   91.4858   12.2539 C.ar    1  UNL1        0.0244
     21 C          65.5269   92.6119   12.8775 C.ar    1  UNL1        0.0991
     22 N          65.7679   92.6263   14.3579 N.ar    1  UNL1       -0.2400
     23 C          65.2388   91.5146   15.2147 C.ar    1  UNL1        0.1285
     24 C          64.4688   90.3885   14.5911 C.ar    1  UNL1        0.1606
     25 F          63.9397   89.2768   15.4480 F       1  UNL1       -0.2025
@<TRIPOS>BOND
     1     1     2    1
     2     2     3   ar
     3     3     9    1
     4     9    10    1
     5    10    11    1
     6    11    12    1
     7    12    13    1
     8    13    14    1
     9    14    15    1
    10    15    16    1
    11    16    17    1
    12    18    17    1
    13     3     4   ar
    14     4     5   ar
    15     5    19    1
    16    19    20   ar
    17    20    21   ar
    18    21    22   ar
    19    22    23   ar
    20    23    24   ar
    21    24    25    1
    22     5     6   ar
    23     6     7   ar
    24     7     8    2
    25     7     2   ar
    26    18     9    1
    27    24    19   ar
    28    18    13    1
@<TRIPOS>MOLECULE
*****
 25 28 0 0 0
SMALL
GASTEIGER

@<TRIPOS>ATOM
      1 C          61.9123   91.0778   11.1757 C.3     1  UNL1        0.1363
      2 N          62.2199   89.6316   11.4279 N.ar    1  UNL1       -0.2667
      3 C          63.1723   89.2469   12.5212 C.ar    1  UNL1        0.2035
      4 N          63.4799   87.8007   12.7735 N.ar    1  UNL1       -0.2147
      5 C          62.8352   86.7390   11.9325 C.ar    1  UNL1        0.0911
      6 C          61.8829   87.1236   10.8392 C.ar    1  UNL1        0.0801
      7 C          61.5753   88.5699   10.5869 C.ar    1  UNL1        0.2645
      8 O          60.6230   88.9545    9.4937 O.2     1  UNL1       -0.2668
      9 N          63.8169   90.3086   13.3622 N.pl3   1  UNL1       -0.2761
     10 C          63.6344   90.2997   14.8510 C.3     1  UNL1        0.1256
     11 C          64.2791   91.3614   15.6920 C.3     1  UNL1        0.1635
     12 O          65.1063   92.4319   15.0442 O.3     1  UNL1       -0.3527
     13 C          65.2888   92.4408   13.5553 C.3     1  UNL1        0.1333
     14 C          66.1160   93.5113   12.9075 C.3     1  UNL1        0.0313
     15 C          66.2985   93.5202   11.4187 C.3     1  UNL1        0.0026
     16 C          65.6539   92.4585   10.5777 C.3     1  UNL1        0.0019
     17 C          64.8267   91.3880   11.2255 C.3     1  UNL1        0.0223
     18 C          64.6442   91.3792   12.7143 C.3     1  UNL1        0.1026
     19 C          63.1429   85.2927   12.1847 C.ar    1  UNL1        0.0485
     20 C          62.9214   84.2788   11.1017 C.ar    1  UNL1        0.0244
     21 C          63.2290   82.8326   11.3539 C.ar    1  UNL1        0.0991
     22 N          63.7581   82.4002   12.6892 N.ar    1  UNL1       -0.2400
     23 C          63.9796   83.4140   13.7722 C.ar    1  UNL1        0.1285
     24 C          63.6720   84.8603   13.5200 C.ar    1  UNL1        0.1606
     25 F          63.8935   85.8742   14.6031 F       1  UNL1       -0.2025
@<TRIPOS>BOND
     1     1     2    1
     2     2     3   ar
     3     3     9    1
     4     9    10    1
     5    10    11    1
     6    11    12    1
     7    12    13    1
     8    13    14    1
     9    14    15    1
    10    15    16    1
    11    16    17    1
    12    18    17    1
    13     3     4   ar
    14     4     5   ar
    15     5    19    1
    16    19    20   ar
    17    20    21   ar
    18    21    22   ar
    19    22    23   ar
    20    23    24   ar
    21    24    25    1
    22     5     6   ar
    23     6     7   ar
    24     7     8    2
    25     7     2   ar
    26    18     9    1
    27    24    19   ar
    28    18    13    1
@<TRIPOS>MOLECULE
*****
 25 28 0 0 0
SMALL
GASTEIGER

@<TRIPOS>ATOM
      1 C          59.9836   87.8046   10.8322 C.3     1  UNL1        0.1363
      2 N          61.1061   88.7651   11.0915 N.ar    1  UNL1       -0.2667
      3 C          62.4519   88.2507   11.5093 C.ar    1  UNL1        0.2035
      4 N          63.5744   89.2112   11.7686 N.ar    1  UNL1       -0.2147
      5 C          63.3513   90.6861   11.6102 C.ar    1  UNL1        0.0911
      6 C          62.0056   91.2004   11.1925 C.ar    1  UNL1        0.0801
      7 C          60.8830   90.2399   10.9331 C.ar    1  UNL1        0.2645
      8 O          59.5373   90.7542   10.5154 O.2     1  UNL1       -0.2668
      9 N          62.6750   86.7759   11.6677 N.pl3   1  UNL1       -0.2761
     10 C          62.2207   85.8293   10.5966 C.3     1  UNL1        0.1256
     11 C          62.4438   84.3545   10.7550 C.3     1  UNL1        0.1635
     12 O          63.1213   83.8263   11.9846 O.3     1  UNL1       -0.3527
     13 C          63.5757   84.7729   13.0558 C.3     1  UNL1        0.1333
     14 C          64.2531   84.2447   14.2854 C.3     1  UNL1        0.0313
     15 C          64.7075   85.1913   15.3566 C.3     1  UNL1        0.0026
     16 C          64.4844   86.6661   15.1982 C.3     1  UNL1        0.0019
     17 C          63.8069   87.1943   13.9686 C.3     1  UNL1        0.0223
     18 C          63.3525   86.2477   12.8974 C.3     1  UNL1        0.1026
     19 C          64.4739   91.6466   11.8696 C.ar    1  UNL1        0.0485
     20 C          64.9779   92.5271   10.7647 C.ar    1  UNL1        0.0244
     21 C          66.1005   93.4876   11.0240 C.ar    1  UNL1        0.0991
     22 N          66.7191   93.5675   12.3881 N.ar    1  UNL1       -0.2400
     23 C          66.2151   92.6870   13.4930 C.ar    1  UNL1        0.1285
     24 C          65.0925   91.7265   13.2337 C.ar    1  UNL1        0.1606
     25 F          64.5886   90.8460   14.3385 F       1  UNL1       -0.2025
@<TRIPOS>BOND
     1     1     2    1
     2     2     3   ar
     3     3     9    1
     4     9    10    1
     5    10    11    1
     6    11    12    1
     7    12    13    1
     8    13    14    1
     9    14    15    1
    10    15    16    1
    11    16    17    1
    12    18    17    1
    13     3     4   ar
    14     4     5   ar
    15     5    19    1
    16    19    20   ar
    17    20    21   ar
    18    21    22   ar
    19    22    23   ar
    20    23    24   ar
    21    24    25    1
    22     5     6   ar
    23     6     7   ar
    24     7     8    2
    25     7     2   ar
    26    18     9    1
    27    24    19   ar
    28    18    13    1
@<TRIPOS>MOLECULE
*****
 25 28 0 0 0
SMALL
GASTEIGER

@<TRIPOS>ATOM
      1 C          64.8282   91.4757   13.3753 C.3     1  UNL1        0.1363
      2 N          63.9494   90.7407   12.4072 N.ar    1  UNL1       -0.2667
      3 C          63.1701   89.5424   12.8623 C.ar    1  UNL1        0.2035
      4 N          62.2913   88.8074   11.8941 N.ar    1  UNL1       -0.2147
      5 C          62.1917   89.2705   10.4709 C.ar    1  UNL1        0.0911
      6 C          62.9709   90.4687   10.0158 C.ar    1  UNL1        0.0801
      7 C          63.8498   91.2038   10.9839 C.ar    1  UNL1        0.2645
      8 O          64.6290   92.4019   10.5288 O.2     1  UNL1       -0.2668
      9 N          63.2697   89.0793   14.2855 N.pl3   1  UNL1       -0.2761
     10 C          63.0723   90.0553   15.4073 C.3     1  UNL1        0.1256
     11 C          63.1719   89.5921   16.8306 C.3     1  UNL1        0.1635
     12 O          63.4689   88.1531   17.1320 O.3     1  UNL1       -0.3527
     13 C          63.6663   87.1771   16.0101 C.3     1  UNL1        0.1333
     14 C          63.9633   85.7380   16.3115 C.3     1  UNL1        0.0313
     15 C          64.1607   84.7621   15.1897 C.3     1  UNL1        0.0026
     16 C          64.0611   85.2252   13.7665 C.3     1  UNL1        0.0019
     17 C          63.7641   86.6643   13.4651 C.3     1  UNL1        0.0223
     18 C          63.5667   87.6402   14.5869 C.3     1  UNL1        0.1026
     19 C          61.3128   88.5354    9.5028 C.ar    1  UNL1        0.0485
     20 C          60.2549   89.2755    8.7392 C.ar    1  UNL1        0.0244
     21 C          59.3760   88.5405    7.7711 C.ar    1  UNL1        0.0991
     22 N          59.5551   87.0653    7.5665 N.ar    1  UNL1       -0.2400
     23 C          60.6130   86.3252    8.3301 C.ar    1  UNL1        0.1285
     24 C          61.4919   87.0603    9.2982 C.ar    1  UNL1        0.1606
     25 F          62.5498   86.3202   10.0618 F       1  UNL1       -0.2025
@<TRIPOS>BOND
     1     1     2    1
     2     2     3   ar
     3     3     9    1
     4     9    10    1
     5    10    11    1
     6    11    12    1
     7    12    13    1
     8    13    14    1
     9    14    15    1
    10    15    16    1
    11    16    17    1
    12    18    17    1
    13     3     4   ar
    14     4     5   ar
    15     5    19    1
    16    19    20   ar
    17    20    21   ar
    18    21    22   ar
    19    22    23   ar
    20    23    24   ar
    21    24    25    1
    22     5     6   ar
    23     6     7   ar
    24     7     8    2
    25     7     2   ar
    26    18     9    1
    27    24    19   ar
    28    18    13    1
