@<TRIPOS>MOLECULE
*****
 31 33 0 0 0
SMALL
GASTEIGER

@<TRIPOS>ATOM
      1 C          63.4953   90.0880   12.9783 C.3     1  UNL1        0.1958
      2 C          62.9092   90.0521   14.3586 C.3     1  UNL1        0.1173
      3 C          63.6338   90.7046   15.4983 C.2     1  UNL1        0.1800
      4 O          63.0477   90.6687   16.8786 O.2     1  UNL1       -0.2911
      5 C          64.9446   91.3931   15.2577 C.ar    1  UNL1        0.0687
      6 C          65.6693   92.0457   16.3975 C.ar    1  UNL1        0.0090
      7 C          66.9801   92.7341   16.1570 C.ar    1  UNL1        0.0366
      8 C          67.5662   92.7700   14.7766 C.ar    1  UNL1        0.1329
      9 O          68.8770   93.4585   14.5361 O.3     1  UNL1       -0.5057
     10 C          66.8415   92.1175   13.6369 C.ar    1  UNL1        0.0498
     11 C          65.5307   91.4290   13.8775 C.ar    1  UNL1        0.1407
     12 O          64.8061   90.7765   12.7378 O.3     1  UNL1       -0.4744
     13 H          69.3296   93.8661   15.2481 H       1  UNL1        0.2922
     14 C          62.0456   87.2886   10.5673 C.ar    1  UNL1        0.0157
     15 C          62.7703   87.9412   11.7071 C.ar    1  UNL1       -0.0018
     16 C          62.7706   89.4354   11.8385 C.ar    1  UNL1        0.0175
     17 C          62.0463   90.2771   10.8301 C.ar    1  UNL1        0.0023
     18 C          61.3216   89.6246    9.6904 C.ar    1  UNL1        0.0361
     19 C          61.3213   88.1303    9.5589 C.ar    1  UNL1        0.1299
     20 O          60.5967   87.4778    8.4192 O.3     1  UNL1       -0.5058
     21 H          60.1442   88.0036    7.7893 H       1  UNL1        0.2922
     22 C          62.0453   85.7944   10.4360 C.3     1  UNL1        0.0547
     23 C          63.7052   82.9124   12.6014 C.3     1  UNL1        0.0260
     24 C          63.3358   83.7687   11.4265 C.2     1  UNL1       -0.0475
     25 C          63.8875   83.4555   10.0673 C.3     1  UNL1        0.0260
     26 C          62.4147   84.9381   11.6109 C.2     1  UNL1       -0.0298
     27 C          67.4276   92.1534   12.2567 C.3     1  UNL1        0.0578
     28 C          66.9606   93.1822   11.2701 C.2     1  UNL1       -0.0297
     29 C          67.5843   93.2522    9.9076 C.2     1  UNL1       -0.0475
     30 C          67.1173   94.2811    8.9210 C.3     1  UNL1        0.0260
     31 C          68.6748   92.2934    9.5318 C.3     1  UNL1        0.0260
@<TRIPOS>BOND
     1    23    24    1
     2    24    25    1
     3    24    26    2
     4    26    22    1
     5    22    14    1
     6    14    15   ar
     7    15    16   ar
     8    16     1    1
     9     1     2    1
    10     2     3    1
    11     3     4    2
    12     3     5    1
    13     5     6   ar
    14     6     7   ar
    15     7     8   ar
    16     8     9    1
    17     8    10   ar
    18    10    27    1
    19    27    28    1
    20    28    29    2
    21    29    30    1
    22    29    31    1
    23    10    11   ar
    24    11    12    1
    25    16    17   ar
    26    17    18   ar
    27    18    19   ar
    28    19    20    1
    29    19    14   ar
    30    12     1    1
    31    11     5   ar
    32     9    13    1
    33    20    21    1
@<TRIPOS>MOLECULE
*****
 31 33 0 0 0
SMALL
GASTEIGER

@<TRIPOS>ATOM
      1 C          63.8265   87.9094   14.0346 C.3     1  UNL1        0.1958
      2 C          64.2276   86.5957   14.6373 C.3     1  UNL1        0.1173
      3 C          63.9995   85.3218   13.8789 C.2     1  UNL1        0.1800
      4 O          64.4006   84.0080   14.4816 O.2     1  UNL1       -0.2911
      5 C          63.3704   85.3617   12.5178 C.ar    1  UNL1        0.0687
      6 C          63.1424   84.0877   11.7594 C.ar    1  UNL1        0.0090
      7 C          62.5133   84.1276   10.3983 C.ar    1  UNL1        0.0366
      8 C          62.1122   85.4414    9.7956 C.ar    1  UNL1        0.1329
      9 O          61.4831   85.4812    8.4345 O.3     1  UNL1       -0.5057
     10 C          62.3402   86.7152   10.5540 C.ar    1  UNL1        0.0498
     11 C          62.9693   86.6754   11.9151 C.ar    1  UNL1        0.1407
     12 O          63.1974   87.9492   12.6735 O.3     1  UNL1       -0.4744
     13 H          61.3407   84.6854    7.9607 H       1  UNL1        0.2922
     14 C          65.2378   91.4851   15.0213 C.ar    1  UNL1        0.0157
     15 C          65.0097   90.2111   14.2629 C.ar    1  UNL1       -0.0018
     16 C          64.0545   89.1833   14.7931 C.ar    1  UNL1        0.0175
     17 C          63.3272   89.4294   16.0817 C.ar    1  UNL1        0.0023
     18 C          63.5552   90.7033   16.8401 C.ar    1  UNL1        0.0361
     19 C          64.5105   91.7312   16.3099 C.ar    1  UNL1        0.1299
     20 O          64.7385   93.0050   17.0683 O.3     1  UNL1       -0.5058
     21 H          64.2842   93.1587   17.8733 H       1  UNL1        0.2922
     22 C          66.1930   92.5128   14.4911 C.3     1  UNL1        0.0547
     23 C          67.7552   92.1499   10.8610 C.3     1  UNL1        0.0260
     24 C          66.8065   92.5073   11.9665 C.2     1  UNL1       -0.0475
     25 C          65.5225   93.2167   11.6530 C.3     1  UNL1        0.0260
     26 C          67.1417   92.1554   13.3856 C.2     1  UNL1       -0.0298
     27 C          61.9392   88.0289    9.9513 C.3     1  UNL1        0.0578
     28 C          60.6555   88.6841   10.3671 C.2     1  UNL1       -0.0297
     29 C          60.6775   90.0475   10.9923 C.2     1  UNL1       -0.0475
     30 C          59.3939   90.7027   11.4082 C.3     1  UNL1        0.0260
     31 C          61.9832   90.7556   11.2017 C.3     1  UNL1        0.0260
@<TRIPOS>BOND
     1    23    24    1
     2    24    25    1
     3    24    26    2
     4    26    22    1
     5    22    14    1
     6    14    15   ar
     7    15    16   ar
     8    16     1    1
     9     1     2    1
    10     2     3    1
    11     3     4    2
    12     3     5    1
    13     5     6   ar
    14     6     7   ar
    15     7     8   ar
    16     8     9    1
    17     8    10   ar
    18    10    27    1
    19    27    28    1
    20    28    29    2
    21    29    30    1
    22    29    31    1
    23    10    11   ar
    24    11    12    1
    25    16    17   ar
    26    17    18   ar
    27    18    19   ar
    28    19    20    1
    29    19    14   ar
    30    12     1    1
    31    11     5   ar
    32     9    13    1
    33    20    21    1
@<TRIPOS>MOLECULE
*****
 31 33 0 0 0
SMALL
GASTEIGER

@<TRIPOS>ATOM
      1 C          63.2702   90.5644   11.0157 C.3     1  UNL1        0.1958
      2 C          63.9287   91.6099   10.1654 C.3     1  UNL1        0.1173
      3 C          64.8982   92.5753   10.7802 C.2     1  UNL1        0.1800
      4 O          65.5568   93.6209    9.9299 O.2     1  UNL1       -0.2911
      5 C          65.2092   92.4951   12.2454 C.ar    1  UNL1        0.0687
      6 C          66.1788   93.4605   12.8603 C.ar    1  UNL1        0.0090
      7 C          66.4898   93.3803   14.3255 C.ar    1  UNL1        0.0366
      8 C          65.8313   92.3347   15.1759 C.ar    1  UNL1        0.1329
      9 O          66.1423   92.2545   16.6411 O.3     1  UNL1       -0.5057
     10 C          64.8618   91.3693   14.5610 C.ar    1  UNL1        0.0498
     11 C          64.5507   91.4495   13.0958 C.ar    1  UNL1        0.1407
     12 O          63.5812   90.4842   12.4809 O.3     1  UNL1       -0.4744
     13 H          66.7479   92.8575   17.0252 H       1  UNL1        0.2922
     14 C          61.5097   87.1584    9.9908 C.ar    1  UNL1        0.0157
     15 C          62.4793   88.1238   10.6056 C.ar    1  UNL1       -0.0018
     16 C          62.3007   89.5990   10.4009 C.ar    1  UNL1        0.0175
     17 C          61.1525   90.1088    9.5812 C.ar    1  UNL1        0.0023
     18 C          60.1829   89.1435    8.9664 C.ar    1  UNL1        0.0361
     19 C          60.3615   87.6682    9.1712 C.ar    1  UNL1        0.1299
     20 O          59.3920   86.7029    8.5563 O.3     1  UNL1       -0.5058
     21 H          58.6748   87.0214    8.0443 H       1  UNL1        0.2922
     22 C          61.6883   85.6832   10.1956 C.3     1  UNL1        0.0547
     23 C          63.9046   83.5892   12.7359 C.3     1  UNL1        0.0260
     24 C          63.3240   84.1033   11.4519 C.2     1  UNL1       -0.0475
     25 C          63.7984   83.5515   10.1402 C.3     1  UNL1        0.0260
     26 C          62.2689   85.1692   11.4796 C.2     1  UNL1       -0.0298
     27 C          64.2032   90.3238   15.4113 C.3     1  UNL1        0.0578
     28 C          64.3329   88.8734   15.0514 C.2     1  UNL1       -0.0297
     29 C          63.7367   87.8235   15.9416 C.2     1  UNL1       -0.0475
     30 C          63.8664   86.3731   15.5817 C.3     1  UNL1        0.0260
     31 C          63.0109   88.2240   17.1917 C.3     1  UNL1        0.0260
@<TRIPOS>BOND
     1    23    24    1
     2    24    25    1
     3    24    26    2
     4    26    22    1
     5    22    14    1
     6    14    15   ar
     7    15    16   ar
     8    16     1    1
     9     1     2    1
    10     2     3    1
    11     3     4    2
    12     3     5    1
    13     5     6   ar
    14     6     7   ar
    15     7     8   ar
    16     8     9    1
    17     8    10   ar
    18    10    27    1
    19    27    28    1
    20    28    29    2
    21    29    30    1
    22    29    31    1
    23    10    11   ar
    24    11    12    1
    25    16    17   ar
    26    17    18   ar
    27    18    19   ar
    28    19    20    1
    29    19    14   ar
    30    12     1    1
    31    11     5   ar
    32     9    13    1
    33    20    21    1
@<TRIPOS>MOLECULE
*****
 31 33 0 0 0
SMALL
GASTEIGER

@<TRIPOS>ATOM
      1 C          63.5349   88.3992   13.2244 C.3     1  UNL1        0.1958
      2 C          62.7854   88.6581   11.9512 C.3     1  UNL1        0.1173
      3 C          62.3638   87.5103   11.0825 C.2     1  UNL1        0.1800
      4 O          61.6143   87.7692    9.8091 O.2     1  UNL1       -0.2911
      5 C          62.6916   86.1036   11.4870 C.ar    1  UNL1        0.0687
      6 C          62.2699   84.9557   10.6183 C.ar    1  UNL1        0.0090
      7 C          62.5977   83.5490   11.0228 C.ar    1  UNL1        0.0366
      8 C          63.3472   83.2901   12.2962 C.ar    1  UNL1        0.1329
      9 O          63.6750   81.8834   12.7008 O.3     1  UNL1       -0.5057
     10 C          63.7688   84.4379   13.1649 C.ar    1  UNL1        0.0498
     11 C          63.4410   85.8447   12.7603 C.ar    1  UNL1        0.1407
     12 O          63.8627   86.9925   13.6290 O.3     1  UNL1       -0.4744
     13 H          63.4116   81.1664   12.1581 H       1  UNL1        0.2922
     14 C          65.3612   91.7039   14.4467 C.ar    1  UNL1        0.0157
     15 C          64.9395   90.5561   13.5779 C.ar    1  UNL1       -0.0018
     16 C          63.9565   89.5471   14.0932 C.ar    1  UNL1        0.0175
     17 C          63.3952   89.6858   15.4773 C.ar    1  UNL1        0.0023
     18 C          63.8168   90.8336   16.3461 C.ar    1  UNL1        0.0361
     19 C          64.7998   91.8427   15.8308 C.ar    1  UNL1        0.1299
     20 O          65.2215   92.9904   16.6996 O.3     1  UNL1       -0.5058
     21 H          64.8708   93.0771   17.5641 H       1  UNL1        0.2922
     22 C          66.3442   92.7129   13.9314 C.3     1  UNL1        0.0547
     23 C          67.7672   92.3380   10.2457 C.3     1  UNL1        0.0260
     24 C          66.8572   92.6912   11.3846 C.2     1  UNL1       -0.0475
     25 C          65.5500   93.3761   11.1155 C.3     1  UNL1        0.0260
     26 C          67.2543   92.3597   12.7926 C.2     1  UNL1       -0.0298
     27 C          64.5183   84.1790   14.4382 C.3     1  UNL1        0.0578
     28 C          64.3878   85.1290   15.5917 C.2     1  UNL1       -0.0297
     29 C          63.0688   85.2855   16.2888 C.2     1  UNL1       -0.0475
     30 C          62.9383   86.2355   17.4423 C.3     1  UNL1        0.0260
     31 C          61.8804   84.4922   15.8324 C.3     1  UNL1        0.0260
@<TRIPOS>BOND
     1    23    24    1
     2    24    25    1
     3    24    26    2
     4    26    22    1
     5    22    14    1
     6    14    15   ar
     7    15    16   ar
     8    16     1    1
     9     1     2    1
    10     2     3    1
    11     3     4    2
    12     3     5    1
    13     5     6   ar
    14     6     7   ar
    15     7     8   ar
    16     8     9    1
    17     8    10   ar
    18    10    27    1
    19    27    28    1
    20    28    29    2
    21    29    30    1
    22    29    31    1
    23    10    11   ar
    24    11    12    1
    25    16    17   ar
    26    17    18   ar
    27    18    19   ar
    28    19    20    1
    29    19    14   ar
    30    12     1    1
    31    11     5   ar
    32     9    13    1
    33    20    21    1
@<TRIPOS>MOLECULE
*****
 31 33 0 0 0
SMALL
GASTEIGER

@<TRIPOS>ATOM
      1 C          63.3492   89.1617   12.7470 C.3     1  UNL1        0.1958
      2 C          62.6163   89.7047   11.5563 C.3     1  UNL1        0.1173
      3 C          62.0213   88.7654   10.5495 C.2     1  UNL1        0.1800
      4 O          61.2883   89.3084    9.3587 O.2     1  UNL1       -0.2911
      5 C          62.1594   87.2831   10.7334 C.ar    1  UNL1        0.0687
      6 C          61.5644   86.3438    9.7265 C.ar    1  UNL1        0.0090
      7 C          61.7024   84.8616    9.9104 C.ar    1  UNL1        0.0366
      8 C          62.4355   84.3186   11.1012 C.ar    1  UNL1        0.1329
      9 O          62.5735   82.8363   11.2851 O.3     1  UNL1       -0.5057
     10 C          63.0304   85.2579   12.1080 C.ar    1  UNL1        0.0498
     11 C          62.8923   86.7402   11.9241 C.ar    1  UNL1        0.1407
     12 O          63.4873   87.6794   12.9309 O.3     1  UNL1       -0.4744
     13 H          62.2019   82.2496   10.6561 H       1  UNL1        0.2922
     14 C          65.6382   91.9770   14.3550 C.ar    1  UNL1        0.0157
     15 C          65.0432   91.0377   13.3480 C.ar    1  UNL1       -0.0018
     16 C          63.9442   90.1010   13.7539 C.ar    1  UNL1        0.0175
     17 C          63.4401   90.1036   15.1667 C.ar    1  UNL1        0.0023
     18 C          64.0350   91.0428   16.1736 C.ar    1  UNL1        0.0361
     19 C          65.1341   91.9796   15.7677 C.ar    1  UNL1        0.1299
     20 O          65.7290   92.9188   16.7746 O.3     1  UNL1       -0.5058
     21 H          65.4141   92.9204   17.6571 H       1  UNL1        0.2922
     22 C          66.7372   92.9137   13.9491 C.3     1  UNL1        0.0547
     23 C          66.0739   95.4431   10.9638 C.3     1  UNL1        0.0260
     24 C          66.4000   94.1813   11.7065 C.2     1  UNL1       -0.0475
     25 C          66.7148   92.9253   10.9492 C.3     1  UNL1        0.0260
     26 C          66.4111   94.1755   13.2064 C.2     1  UNL1       -0.0298
     27 C          63.7634   84.7149   13.2987 C.3     1  UNL1        0.0578
     28 C          63.1730   84.8545   14.6706 C.2     1  UNL1       -0.0297
     29 C          63.8139   85.7676   15.6735 C.2     1  UNL1       -0.0475
     30 C          63.2236   85.9072   17.0454 C.3     1  UNL1        0.0260
     31 C          65.0450   86.5409   15.3045 C.3     1  UNL1        0.0260
@<TRIPOS>BOND
     1    23    24    1
     2    24    25    1
     3    24    26    2
     4    26    22    1
     5    22    14    1
     6    14    15   ar
     7    15    16   ar
     8    16     1    1
     9     1     2    1
    10     2     3    1
    11     3     4    2
    12     3     5    1
    13     5     6   ar
    14     6     7   ar
    15     7     8   ar
    16     8     9    1
    17     8    10   ar
    18    10    27    1
    19    27    28    1
    20    28    29    2
    21    29    30    1
    22    29    31    1
    23    10    11   ar
    24    11    12    1
    25    16    17   ar
    26    17    18   ar
    27    18    19   ar
    28    19    20    1
    29    19    14   ar
    30    12     1    1
    31    11     5   ar
    32     9    13    1
    33    20    21    1
@<TRIPOS>MOLECULE
*****
 31 33 0 0 0
SMALL
GASTEIGER

@<TRIPOS>ATOM
      1 C          62.5763   89.7082   11.5021 C.3     1  UNL1        0.1958
      2 C          61.3229   90.5174   11.3461 C.3     1  UNL1        0.1173
      3 C          60.2538   90.0681   10.3949 C.2     1  UNL1        0.1800
      4 O          59.0003   90.8772   10.2389 O.2     1  UNL1       -0.2911
      5 C          60.4379   88.8096    9.5996 C.ar    1  UNL1        0.0687
      6 C          59.3686   88.3604    8.6483 C.ar    1  UNL1        0.0090
      7 C          59.5528   87.1019    7.8531 C.ar    1  UNL1        0.0366
      8 C          60.8062   86.2928    8.0091 C.ar    1  UNL1        0.1329
      9 O          60.9904   85.0344    7.2138 O.3     1  UNL1       -0.5057
     10 C          61.8754   86.7421    8.9603 C.ar    1  UNL1        0.0498
     11 C          61.6913   88.0005    9.7556 C.ar    1  UNL1        0.1407
     12 O          62.7605   88.4498   10.7068 O.3     1  UNL1       -0.4744
     13 H          60.3225   84.7537    6.6196 H       1  UNL1        0.2922
     14 C          65.4947   91.8563   13.1207 C.ar    1  UNL1        0.0157
     15 C          64.4254   91.4070   12.1694 C.ar    1  UNL1       -0.0018
     16 C          63.6456   90.1575   12.4534 C.ar    1  UNL1        0.0175
     17 C          63.9349   89.3573   13.6887 C.ar    1  UNL1        0.0023
     18 C          65.0041   89.8066   14.6399 C.ar    1  UNL1        0.0361
     19 C          65.7841   91.0560   14.3559 C.ar    1  UNL1        0.1299
     20 O          66.8533   91.5053   15.3072 O.3     1  UNL1       -0.5058
     21 H          67.0340   91.0054   16.0788 H       1  UNL1        0.2922
     22 C          66.2745   93.1057   12.8366 C.3     1  UNL1        0.0547
     23 C          66.9593   93.9967    9.0304 C.3     1  UNL1        0.0260
     24 C          67.0653   93.3352   10.3725 C.2     1  UNL1       -0.0475
     25 C          68.0682   92.2416   10.5925 C.3     1  UNL1        0.0260
     26 C          66.1685   93.7672   11.4946 C.2     1  UNL1       -0.0298
     27 C          63.1288   85.9330    9.1163 C.3     1  UNL1        0.0578
     28 C          63.0542   84.5264    9.6321 C.2     1  UNL1       -0.0297
     29 C          62.9202   84.2736   11.1046 C.2     1  UNL1       -0.0475
     30 C          62.8456   82.8671   11.6203 C.3     1  UNL1        0.0260
     31 C          62.8609   85.4274   12.0613 C.3     1  UNL1        0.0260
@<TRIPOS>BOND
     1    23    24    1
     2    24    25    1
     3    24    26    2
     4    26    22    1
     5    22    14    1
     6    14    15   ar
     7    15    16   ar
     8    16     1    1
     9     1     2    1
    10     2     3    1
    11     3     4    2
    12     3     5    1
    13     5     6   ar
    14     6     7   ar
    15     7     8   ar
    16     8     9    1
    17     8    10   ar
    18    10    27    1
    19    27    28    1
    20    28    29    2
    21    29    30    1
    22    29    31    1
    23    10    11   ar
    24    11    12    1
    25    16    17   ar
    26    17    18   ar
    27    18    19   ar
    28    19    20    1
    29    19    14   ar
    30    12     1    1
    31    11     5   ar
    32     9    13    1
    33    20    21    1
@<TRIPOS>MOLECULE
*****
 31 33 0 0 0
SMALL
GASTEIGER

@<TRIPOS>ATOM
      1 C          63.8389   88.0286   13.9642 C.3     1  UNL1        0.1958
      2 C          63.8610   87.7998   15.4465 C.3     1  UNL1        0.1173
      3 C          63.5695   86.4362   15.9993 C.2     1  UNL1        0.1800
      4 O          63.5916   86.2074   17.4816 O.2     1  UNL1       -0.2911
      5 C          63.2559   85.3015   15.0698 C.ar    1  UNL1        0.0687
      6 C          62.9644   83.9378   15.6226 C.ar    1  UNL1        0.0090
      7 C          62.6507   82.8030   14.6931 C.ar    1  UNL1        0.0366
      8 C          62.6286   83.0319   13.2108 C.ar    1  UNL1        0.1329
      9 O          62.3150   81.8972   12.2813 O.3     1  UNL1       -0.5057
     10 C          62.9201   84.3955   12.6581 C.ar    1  UNL1        0.0498
     11 C          63.2338   85.5303   13.5875 C.ar    1  UNL1        0.1407
     12 O          63.5253   86.8939   13.0348 O.3     1  UNL1       -0.4744
     13 H          62.1329   81.0453   12.6267 H       1  UNL1        0.2922
     14 C          65.2848   91.7095   13.6306 C.ar    1  UNL1        0.0157
     15 C          64.9933   90.3458   14.1834 C.ar    1  UNL1       -0.0018
     16 C          64.1304   89.3923   13.4114 C.ar    1  UNL1        0.0175
     17 C          63.5590   89.8023   12.0865 C.ar    1  UNL1        0.0023
     18 C          63.8505   91.1659   11.5336 C.ar    1  UNL1        0.0361
     19 C          64.7134   92.1195   12.3057 C.ar    1  UNL1        0.1299
     20 O          65.0049   93.4831   11.7528 O.3     1  UNL1       -0.5058
     21 H          64.6480   93.7392   10.9252 H       1  UNL1        0.2922
     22 C          66.1477   92.6630   14.4027 C.3     1  UNL1        0.0547
     23 C          69.0677   91.7873   16.9437 C.3     1  UNL1        0.0260
     24 C          68.3564   92.2520   15.7075 C.2     1  UNL1       -0.0475
     25 C          69.1427   92.7705   14.5400 C.3     1  UNL1        0.0260
     26 C          66.8590   92.1983   15.6388 C.2     1  UNL1       -0.0298
     27 C          62.8980   84.6243   11.1758 C.3     1  UNL1        0.0578
     28 C          61.7978   85.4357   10.5585 C.2     1  UNL1       -0.0297
     29 C          61.8612   85.8027    9.1054 C.2     1  UNL1       -0.0475
     30 C          60.7609   86.6141    8.4881 C.3     1  UNL1        0.0260
     31 C          63.0249   85.3584    8.2697 C.3     1  UNL1        0.0260
@<TRIPOS>BOND
     1    23    24    1
     2    24    25    1
     3    24    26    2
     4    26    22    1
     5    22    14    1
     6    14    15   ar
     7    15    16   ar
     8    16     1    1
     9     1     2    1
    10     2     3    1
    11     3     4    2
    12     3     5    1
    13     5     6   ar
    14     6     7   ar
    15     7     8   ar
    16     8     9    1
    17     8    10   ar
    18    10    27    1
    19    27    28    1
    20    28    29    2
    21    29    30    1
    22    29    31    1
    23    10    11   ar
    24    11    12    1
    25    16    17   ar
    26    17    18   ar
    27    18    19   ar
    28    19    20    1
    29    19    14   ar
    30    12     1    1
    31    11     5   ar
    32     9    13    1
    33    20    21    1
@<TRIPOS>MOLECULE
*****
 31 33 0 0 0
SMALL
GASTEIGER

@<TRIPOS>ATOM
      1 C          63.0117   90.3101   10.8841 C.3     1  UNL1        0.1958
      2 C          63.6612   91.3716   10.0467 C.3     1  UNL1        0.1173
      3 C          64.6337   92.3283   10.6704 C.2     1  UNL1        0.1800
      4 O          65.2833   93.3899    9.8329 O.2     1  UNL1       -0.2911
      5 C          64.9566   92.2236   12.1314 C.ar    1  UNL1        0.0687
      6 C          65.9291   93.1804   12.7551 C.ar    1  UNL1        0.0090
      7 C          66.2520   93.0756   14.2162 C.ar    1  UNL1        0.0366
      8 C          65.6025   92.0140   15.0536 C.ar    1  UNL1        0.1329
      9 O          65.9254   91.9092   16.5147 O.3     1  UNL1       -0.5057
     10 C          64.6300   91.0573   14.4299 C.ar    1  UNL1        0.0498
     11 C          64.3071   91.1621   12.9689 C.ar    1  UNL1        0.1407
     12 O          63.3346   90.2054   12.3452 O.3     1  UNL1       -0.4744
     13 H          66.5329   92.5069   16.9042 H       1  UNL1        0.2922
     14 C          60.2072   88.8413    8.4908 C.ar    1  UNL1        0.0157
     15 C          61.1797   89.7981    9.1145 C.ar    1  UNL1       -0.0018
     16 C          62.0392   89.3534   10.2605 C.ar    1  UNL1        0.0175
     17 C          61.9262   87.9518   10.7829 C.ar    1  UNL1        0.0023
     18 C          60.9538   86.9951   10.1593 C.ar    1  UNL1        0.0361
     19 C          60.0942   87.4398    9.0132 C.ar    1  UNL1        0.1299
     20 O          59.1218   86.4830    8.3897 O.3     1  UNL1       -0.5058
     21 H          59.0512   85.6075    8.7160 H       1  UNL1        0.2922
     22 C          59.3477   89.2861    7.3448 C.3     1  UNL1        0.0547
     23 C          59.4989   91.9422    4.3999 C.3     1  UNL1        0.0260
     24 C          58.9553   90.9832    5.4171 C.2     1  UNL1       -0.0475
     25 C          57.4754   90.7623    5.5239 C.3     1  UNL1        0.0260
     26 C          59.8913   90.2451    6.3276 C.2     1  UNL1       -0.0298
     27 C          63.9805   89.9958   15.2673 C.3     1  UNL1        0.0578
     28 C          64.2580   88.5479   14.9907 C.2     1  UNL1       -0.0297
     29 C          63.7462   87.4939   15.9273 C.2     1  UNL1       -0.0475
     30 C          64.0237   86.0460   15.6506 C.3     1  UNL1        0.0260
     31 C          62.9570   87.8878   17.1405 C.3     1  UNL1        0.0260
@<TRIPOS>BOND
     1    23    24    1
     2    24    25    1
     3    24    26    2
     4    26    22    1
     5    22    14    1
     6    14    15   ar
     7    15    16   ar
     8    16     1    1
     9     1     2    1
    10     2     3    1
    11     3     4    2
    12     3     5    1
    13     5     6   ar
    14     6     7   ar
    15     7     8   ar
    16     8     9    1
    17     8    10   ar
    18    10    27    1
    19    27    28    1
    20    28    29    2
    21    29    30    1
    22    29    31    1
    23    10    11   ar
    24    11    12    1
    25    16    17   ar
    26    17    18   ar
    27    18    19   ar
    28    19    20    1
    29    19    14   ar
    30    12     1    1
    31    11     5   ar
    32     9    13    1
    33    20    21    1
@<TRIPOS>MOLECULE
*****
 31 33 0 0 0
SMALL
GASTEIGER

@<TRIPOS>ATOM
      1 C          63.9625   89.9495   13.6521 C.3     1  UNL1        0.1958
      2 C          63.3338   89.6663   12.3200 C.3     1  UNL1        0.1173
      3 C          63.5605   90.6017   11.1697 C.2     1  UNL1        0.1800
      4 O          62.9319   90.3185    9.8375 O.2     1  UNL1       -0.2911
      5 C          64.4159   91.8205   11.3514 C.ar    1  UNL1        0.0687
      6 C          64.6426   92.7560   10.2009 C.ar    1  UNL1        0.0090
      7 C          65.4980   93.9747   10.3826 C.ar    1  UNL1        0.0366
      8 C          66.1267   94.2579   11.7148 C.ar    1  UNL1        0.1329
      9 O          66.9821   95.4767   11.8965 O.3     1  UNL1       -0.5057
     10 C          65.8999   93.3224   12.8652 C.ar    1  UNL1        0.0498
     11 C          65.0446   92.1037   12.6835 C.ar    1  UNL1        0.1407
     12 O          64.8178   91.1682   13.8338 O.3     1  UNL1       -0.4744
     13 H          67.1237   96.0610   11.1779 H       1  UNL1        0.2922
     14 C          63.8405   86.6224   15.8122 C.ar    1  UNL1        0.0157
     15 C          64.0672   87.5579   14.6618 C.ar    1  UNL1       -0.0018
     16 C          63.7358   89.0140   14.8026 C.ar    1  UNL1        0.0175
     17 C          63.1776   89.5347   16.0938 C.ar    1  UNL1        0.0023
     18 C          62.9509   88.5992   17.2443 C.ar    1  UNL1        0.0361
     19 C          63.2823   87.1431   17.1035 C.ar    1  UNL1        0.1299
     20 O          63.0556   86.2076   18.2539 O.3     1  UNL1       -0.5058
     21 H          62.7069   86.5329   19.0605 H       1  UNL1        0.2922
     22 C          64.1720   85.1663   15.6714 C.3     1  UNL1        0.0547
     23 C          64.1930   82.9898   12.3529 C.3     1  UNL1        0.0260
     24 C          63.7765   83.5387   13.6853 C.2     1  UNL1       -0.0475
     25 C          62.5481   83.0090   14.3639 C.3     1  UNL1        0.0260
     26 C          64.5884   84.6173   14.3390 C.2     1  UNL1       -0.0298
     27 C          66.5286   93.6057   14.1973 C.3     1  UNL1        0.0578
     28 C          67.2344   92.5112   14.9414 C.2     1  UNL1       -0.0297
     29 C          68.3918   92.8390   15.8376 C.2     1  UNL1       -0.0475
     30 C          69.0976   91.7445   16.5818 C.3     1  UNL1        0.0260
     31 C          68.8433   94.2613   15.9897 C.3     1  UNL1        0.0260
@<TRIPOS>BOND
     1    23    24    1
     2    24    25    1
     3    24    26    2
     4    26    22    1
     5    22    14    1
     6    14    15   ar
     7    15    16   ar
     8    16     1    1
     9     1     2    1
    10     2     3    1
    11     3     4    2
    12     3     5    1
    13     5     6   ar
    14     6     7   ar
    15     7     8   ar
    16     8     9    1
    17     8    10   ar
    18    10    27    1
    19    27    28    1
    20    28    29    2
    21    29    30    1
    22    29    31    1
    23    10    11   ar
    24    11    12    1
    25    16    17   ar
    26    17    18   ar
    27    18    19   ar
    28    19    20    1
    29    19    14   ar
    30    12     1    1
    31    11     5   ar
    32     9    13    1
    33    20    21    1
