@<TRIPOS>MOLECULE
*****
 38 40 0 0 0
SMALL
GASTEIGER

@<TRIPOS>ATOM
      1 C          61.6180   87.1361   10.8597 C.3     1  UNL1        0.1496
      2 N          63.0543   83.5013   11.5485 N.am    1  UNL1       -0.2567
      3 C          63.8142   82.4271   10.8283 C.3     1  UNL1        0.1168
      4 C          62.7161   84.7816   10.8440 C.2     1  UNL1        0.3046
      5 O          63.1377   84.9878    9.4194 O.2     1  UNL1       -0.2526
      6 N          61.9562   85.8558   11.5642 N.am    1  UNL1       -0.2824
      7 H          61.6795   85.7205   12.4993 H       1  UNL1        0.1514
      8 C          62.6327   83.2951   12.9731 C.3     1  UNL1        0.1413
      9 C          63.4149   85.7801   15.8504 C.ar    1  UNL1        0.0875
     10 N          62.4491   85.1436   14.8953 N.ar    1  UNL1       -0.2453
     11 C          63.2077   84.1570   14.0577 C.ar    1  UNL1        0.0858
     12 C          64.6422   84.1839   14.4953 C.ar    1  UNL1        0.0530
     13 S          64.7703   85.1869   15.6032 S.2     1  UNL1       -0.0705
     14 C          63.1405   88.2791   16.5055 C.3     1  UNL1        0.0069
     15 C          63.0834   86.8260   16.8731 C.3     1  UNL1        0.0465
     16 C          62.6947   86.4189   18.2635 C.3     1  UNL1        0.0069
     17 C          62.4528   88.3612   11.0886 C.2     1  UNL1        0.2403
     18 O          62.7850   89.2676    9.9404 O.2     1  UNL1       -0.2733
     19 N          62.9554   88.6799   12.4654 N.am    1  UNL1       -0.3045
     20 H          62.7373   88.0850   13.2190 H       1  UNL1        0.1494
     21 C          63.7902   89.9050   12.6942 C.3     1  UNL1        0.0750
     22 C          63.7521   91.0337   11.7070 C.3     1  UNL1        0.0412
     23 C          64.5869   92.2587   11.9359 C.3     1  UNL1        0.0984
     24 N          65.4598   92.3550   13.1519 N.am    1  UNL1       -0.2459
     25 C          66.2946   93.5801   13.3807 C.2     1  UNL1        0.4052
     26 O          67.1675   93.6765   14.5968 O.2     1  UNL1       -0.2262
     27 C          65.4979   91.2264   14.1391 C.3     1  UNL1        0.0984
     28 C          64.6631   90.0014   13.9103 C.3     1  UNL1        0.0412
     29 O          66.2565   94.7088   12.3935 O.3     1  UNL1       -0.4289
     30 C          66.9160   94.5569   11.0548 C.3     1  UNL1        0.2447
     31 C          66.4337   95.3629    9.8854 C.ar    1  UNL1        0.0714
     32 C          65.2202   96.2443    9.8625 C.ar    1  UNL1        0.1053
     33 N          65.1167   96.8551    8.4964 N.ar    1  UNL1       -0.2350
     34 C          66.2663   96.3513    7.6750 C.ar    1  UNL1        0.1343
     35 S          67.0802   95.4290    8.5334 S.2     1  UNL1       -0.0652
     36 C          60.4450   87.1914    9.9265 C.3     1  UNL1        0.0270
     37 C          59.3332   88.1670   10.1763 C.3     1  UNL1        0.0022
     38 C          60.3837   86.2712    8.7435 C.3     1  UNL1        0.0022
@<TRIPOS>BOND
     1    14    15    1
     2    15    16    1
     3    15     9    1
     4     9    10   ar
     5    10    11   ar
     6    11     8    1
     7     8     2    1
     8     2     3    1
     9     2     4   am
    10     4     5    2
    11     4     6   am
    12     1     6    1
    13     1    17    1
    14    17    18    2
    15    17    19   am
    16    19    21    1
    17    21    22    1
    18    22    23    1
    19    23    24    1
    20    24    25   am
    21    25    26    2
    22    25    29    1
    23    29    30    1
    24    30    31    1
    25    31    32   ar
    26    32    33   ar
    27    33    34   ar
    28    34    35   ar
    29    24    27    1
    30    27    28    1
    31     1    36    1
    32    36    37    1
    33    36    38    1
    34    11    12   ar
    35    12    13   ar
    36    13     9   ar
    37    28    21    1
    38    35    31   ar
    39     6     7    1
    40    19    20    1
@<TRIPOS>MOLECULE
*****
 38 40 0 0 0
SMALL
GASTEIGER

@<TRIPOS>ATOM
      1 C          64.2470   87.5528   14.2302 C.3     1  UNL1        0.1496
      2 N          64.8125   91.2595   15.5302 N.am    1  UNL1       -0.2567
      3 C          64.1498   92.2584   16.4319 C.3     1  UNL1        0.1168
      4 C          64.1984   89.9056   15.3310 C.2     1  UNL1        0.3046
      5 O          62.9217   89.5504   16.0336 O.2     1  UNL1       -0.2526
      6 N          64.8611   88.9067   14.4293 N.am    1  UNL1       -0.2824
      7 H          65.6991   89.1398   13.9682 H       1  UNL1        0.1514
      8 C          66.0893   91.6147   14.8276 C.3     1  UNL1        0.1413
      9 C          66.7632   92.7455   11.1761 C.ar    1  UNL1        0.0875
     10 N          67.2399   92.4699   12.5715 N.ar    1  UNL1       -0.2453
     11 C          66.0654   92.0013   13.3784 C.ar    1  UNL1        0.0858
     12 C          64.8630   91.9873   12.4818 C.ar    1  UNL1        0.0530
     13 S          65.2942   92.4472   11.1207 S.2     1  UNL1       -0.0705
     14 C          67.4454   94.6362    9.5301 C.3     1  UNL1        0.0069
     15 C          67.6074   93.2336   10.0364 C.3     1  UNL1        0.0465
     16 C          68.6135   92.3191    9.4029 C.3     1  UNL1        0.0069
     17 C          63.3126   87.3147   13.0812 C.2     1  UNL1        0.2403
     18 O          62.8788   85.9189   12.7441 O.2     1  UNL1       -0.2733
     19 N          62.8119   88.4723   12.2693 N.am    1  UNL1       -0.3045
     20 H          63.0967   89.3884   12.4906 H       1  UNL1        0.1494
     21 C          61.8775   88.2342   11.1203 C.3     1  UNL1        0.0750
     22 C          61.4222   89.3851   10.2729 C.3     1  UNL1        0.0412
     23 C          60.4878   89.1470    9.1240 C.3     1  UNL1        0.0984
     24 N          60.0087   87.7580    8.8224 N.am    1  UNL1       -0.2459
     25 C          59.0742   87.5199    7.6734 C.2     1  UNL1        0.4052
     26 O          58.5950   86.1308    7.3718 O.2     1  UNL1       -0.2262
     27 C          60.4639   86.6070    9.6698 C.3     1  UNL1        0.0984
     28 C          61.3983   86.8452   10.8187 C.3     1  UNL1        0.0412
     29 O          58.6190   88.6708    6.8260 O.3     1  UNL1       -0.4289
     30 C          59.6137   89.6812    6.3363 C.3     1  UNL1        0.2447
     31 C          59.1815   90.7611    5.3892 C.ar    1  UNL1        0.0714
     32 C          57.7688   91.1949    5.1321 C.ar    1  UNL1        0.1053
     33 N          57.8004   92.2986    4.1168 N.ar    1  UNL1       -0.2350
     34 C          59.2326   92.5470    3.7465 C.ar    1  UNL1        0.1343
     35 S          60.0862   91.5967    4.5328 S.2     1  UNL1       -0.0652
     36 C          64.5674   86.4369   15.1800 C.3     1  UNL1        0.0270
     37 C          63.6797   86.1796   16.3614 C.3     1  UNL1        0.0022
     38 C          65.7753   85.5784   14.9484 C.3     1  UNL1        0.0022
@<TRIPOS>BOND
     1    14    15    1
     2    15    16    1
     3    15     9    1
     4     9    10   ar
     5    10    11   ar
     6    11     8    1
     7     8     2    1
     8     2     3    1
     9     2     4   am
    10     4     5    2
    11     4     6   am
    12     1     6    1
    13     1    17    1
    14    17    18    2
    15    17    19   am
    16    19    21    1
    17    21    22    1
    18    22    23    1
    19    23    24    1
    20    24    25   am
    21    25    26    2
    22    25    29    1
    23    29    30    1
    24    30    31    1
    25    31    32   ar
    26    32    33   ar
    27    33    34   ar
    28    34    35   ar
    29    24    27    1
    30    27    28    1
    31     1    36    1
    32    36    37    1
    33    36    38    1
    34    11    12   ar
    35    12    13   ar
    36    13     9   ar
    37    28    21    1
    38    35    31   ar
    39     6     7    1
    40    19    20    1
@<TRIPOS>MOLECULE
*****
 38 40 0 0 0
SMALL
GASTEIGER

@<TRIPOS>ATOM
      1 C          63.3856   85.9664   14.4556 C.3     1  UNL1        0.1496
      2 N          63.2846   83.6770   11.2155 N.am    1  UNL1       -0.2567
      3 C          64.1015   82.6034   10.5598 C.3     1  UNL1        0.1168
      4 C          63.7435   84.2849   12.5077 C.2     1  UNL1        0.3046
      5 O          65.0194   83.8192   13.1443 O.2     1  UNL1       -0.2526
      6 N          62.9266   85.3585   13.1634 N.am    1  UNL1       -0.2824
      7 H          62.0892   85.6642   12.7456 H       1  UNL1        0.1514
      8 C          62.0087   84.1428   10.5789 C.3     1  UNL1        0.1413
      9 C          60.9995   87.8876   10.7331 C.ar    1  UNL1        0.0875
     10 N          61.0042   86.5068   11.3192 N.ar    1  UNL1       -0.2453
     11 C          61.7594   85.6090   10.3842 C.ar    1  UNL1        0.0858
     12 C          62.2213   86.4351    9.2205 C.ar    1  UNL1        0.0530
     13 S          61.7517   87.8433    9.4361 S.2     1  UNL1       -0.0705
     14 C          59.2143   88.9423   12.2985 C.3     1  UNL1        0.0069
     15 C          60.3556   89.0998   11.3380 C.3     1  UNL1        0.0465
     16 C          60.8530   90.4695   10.9823 C.3     1  UNL1        0.0069
     17 C          64.1421   87.2617   14.4482 C.2     1  UNL1        0.2403
     18 O          65.5123   87.3335   15.0543 O.2     1  UNL1       -0.2733
     19 N          63.5283   88.4852   13.8348 N.am    1  UNL1       -0.3045
     20 H          62.6289   88.4381   13.4370 H       1  UNL1        0.1494
     21 C          64.2847   89.7805   13.8274 C.3     1  UNL1        0.0750
     22 C          64.1624   90.7139   12.6596 C.3     1  UNL1        0.0412
     23 C          64.9188   92.0091   12.6522 C.3     1  UNL1        0.0984
     24 N          65.7976   92.3710   13.8127 N.am    1  UNL1       -0.2459
     25 C          66.5541   93.6663   13.8053 C.2     1  UNL1        0.4052
     26 O          67.4329   94.0282   14.9657 O.2     1  UNL1       -0.2262
     27 C          65.9200   91.4377   14.9805 C.3     1  UNL1        0.0984
     28 C          65.1636   90.1424   14.9879 C.3     1  UNL1        0.0412
     29 O          66.4317   94.5996   12.6375 O.3     1  UNL1       -0.4289
     30 C          66.5667   94.0733   11.2393 C.3     1  UNL1        0.2447
     31 C          66.6798   95.0265   10.0867 C.ar    1  UNL1        0.0714
     32 C          67.7374   95.0027    9.0233 C.ar    1  UNL1        0.1053
     33 N          67.4663   96.1324    8.0745 N.ar    1  UNL1       -0.2350
     34 C          66.2411   96.8545    8.5515 C.ar    1  UNL1        0.1343
     35 S          65.7550   96.1710    9.7951 S.2     1  UNL1       -0.0652
     36 C          63.0881   85.2790   15.7552 C.3     1  UNL1        0.0270
     37 C          63.1248   86.0539   17.0390 C.3     1  UNL1        0.0022
     38 C          62.7539   83.8168   15.7710 C.3     1  UNL1        0.0022
@<TRIPOS>BOND
     1    14    15    1
     2    15    16    1
     3    15     9    1
     4     9    10   ar
     5    10    11   ar
     6    11     8    1
     7     8     2    1
     8     2     3    1
     9     2     4   am
    10     4     5    2
    11     4     6   am
    12     1     6    1
    13     1    17    1
    14    17    18    2
    15    17    19   am
    16    19    21    1
    17    21    22    1
    18    22    23    1
    19    23    24    1
    20    24    25   am
    21    25    26    2
    22    25    29    1
    23    29    30    1
    24    30    31    1
    25    31    32   ar
    26    32    33   ar
    27    33    34   ar
    28    34    35   ar
    29    24    27    1
    30    27    28    1
    31     1    36    1
    32    36    37    1
    33    36    38    1
    34    11    12   ar
    35    12    13   ar
    36    13     9   ar
    37    28    21    1
    38    35    31   ar
    39     6     7    1
    40    19    20    1
@<TRIPOS>MOLECULE
*****
 38 40 0 0 0
SMALL
GASTEIGER

@<TRIPOS>ATOM
      1 C          62.4357   85.4029   12.0626 C.3     1  UNL1        0.1496
      2 N          61.5425   85.3221    8.1966 N.am    1  UNL1       -0.2567
      3 C          62.1674   84.9095    6.8969 C.3     1  UNL1        0.1168
      4 C          62.3015   85.1562    9.4798 C.2     1  UNL1        0.3046
      5 O          63.6854   84.5778    9.4632 O.2     1  UNL1       -0.2526
      6 N          61.6767   85.5688   10.7795 N.am    1  UNL1       -0.2824
      7 H          60.7684   85.9484   10.7904 H       1  UNL1        0.1514
      8 C          60.1587   85.9005    8.2132 C.3     1  UNL1        0.1413
      9 C          59.4337   89.4494    6.8184 C.ar    1  UNL1        0.0875
     10 N          59.5039   87.9614    6.6418 N.ar    1  UNL1       -0.2453
     11 C          59.9531   87.3612    7.9412 C.ar    1  UNL1        0.0858
     12 C          60.1605   88.4782    8.9206 C.ar    1  UNL1        0.0530
     13 S          59.8395   89.7688    8.2267 S.2     1  UNL1       -0.0705
     14 C          57.5759   90.7197    5.5205 C.3     1  UNL1        0.0069
     15 C          59.0288   90.4433    5.7705 C.3     1  UNL1        0.0465
     16 C          60.0769   91.1609    4.9726 C.3     1  UNL1        0.0069
     17 C          63.1813   86.5652   12.6486 C.2     1  UNL1        0.2403
     18 O          64.2911   86.3269   13.6291 O.2     1  UNL1       -0.2733
     19 N          62.8169   87.9658   12.2541 N.am    1  UNL1       -0.3045
     20 H          62.0885   88.1222   11.6105 H       1  UNL1        0.1494
     21 C          63.5625   89.1280   12.8401 C.3     1  UNL1        0.0750
     22 C          63.6979   90.4022   12.0603 C.3     1  UNL1        0.0412
     23 C          64.4434   91.5644   12.6463 C.3     1  UNL1        0.0984
     24 N          65.0535   91.4524   14.0121 N.am    1  UNL1       -0.2459
     25 C          65.7991   92.6147   14.5981 C.2     1  UNL1        0.4052
     26 O          66.4091   92.5027   15.9638 O.2     1  UNL1       -0.2262
     27 C          64.9181   90.1783   14.7918 C.3     1  UNL1        0.0984
     28 C          64.1725   89.0161   14.2058 C.3     1  UNL1        0.0412
     29 O          65.9345   93.8889   13.8183 O.3     1  UNL1       -0.4289
     30 C          66.7956   93.9291   12.5907 C.3     1  UNL1        0.2447
     31 C          66.4581   94.8649   11.4681 C.ar    1  UNL1        0.0714
     32 C          66.0629   96.3050   11.6094 C.ar    1  UNL1        0.1053
     33 N          65.8171   96.8551   10.2358 N.ar    1  UNL1       -0.2350
     34 C          66.0604   95.7550    9.2455 C.ar    1  UNL1        0.1343
     35 S          66.4565   94.5250   10.0071 S.2     1  UNL1       -0.0652
     36 C          62.4492   84.0749   12.7597 C.3     1  UNL1        0.0270
     37 C          62.7750   82.8281   11.9920 C.3     1  UNL1        0.0022
     38 C          62.1368   83.9935   14.2246 C.3     1  UNL1        0.0022
@<TRIPOS>BOND
     1    14    15    1
     2    15    16    1
     3    15     9    1
     4     9    10   ar
     5    10    11   ar
     6    11     8    1
     7     8     2    1
     8     2     3    1
     9     2     4   am
    10     4     5    2
    11     4     6   am
    12     1     6    1
    13     1    17    1
    14    17    18    2
    15    17    19   am
    16    19    21    1
    17    21    22    1
    18    22    23    1
    19    23    24    1
    20    24    25   am
    21    25    26    2
    22    25    29    1
    23    29    30    1
    24    30    31    1
    25    31    32   ar
    26    32    33   ar
    27    33    34   ar
    28    34    35   ar
    29    24    27    1
    30    27    28    1
    31     1    36    1
    32    36    37    1
    33    36    38    1
    34    11    12   ar
    35    12    13   ar
    36    13     9   ar
    37    28    21    1
    38    35    31   ar
    39     6     7    1
    40    19    20    1
@<TRIPOS>MOLECULE
*****
 38 40 0 0 0
SMALL
GASTEIGER

@<TRIPOS>ATOM
      1 C          62.5609   85.1258   12.0161 C.3     1  UNL1        0.1496
      2 N          61.9395   85.0905    8.0966 N.am    1  UNL1       -0.2567
      3 C          62.6636   84.7172    6.8371 C.3     1  UNL1        0.1168
      4 C          62.6122   84.9215    9.4266 C.2     1  UNL1        0.3046
      5 O          64.0089   84.3792    9.4971 O.2     1  UNL1       -0.2526
      6 N          61.8882   85.2948   10.6861 N.am    1  UNL1       -0.2824
      7 H          60.9715   85.6508   10.6398 H       1  UNL1        0.1514
      8 C          60.5428   85.6329    8.0260 C.3     1  UNL1        0.1413
      9 C          60.1265   89.1372    9.6421 C.ar    1  UNL1        0.0875
     10 N          60.5462   87.6993    9.7216 N.ar    1  UNL1       -0.2453
     11 C          60.2742   87.0628    8.3908 C.ar    1  UNL1        0.0858
     12 C          59.6864   88.1073    7.4889 C.ar    1  UNL1        0.0530
     13 S          59.5951   89.3894    8.2622 S.2     1  UNL1       -0.0705
     14 C          61.3403   91.1450   10.7581 C.3     1  UNL1        0.0069
     15 C          60.2216   90.1459   10.7483 C.3     1  UNL1        0.0465
     16 C          59.1979   90.1553   11.8446 C.3     1  UNL1        0.0069
     17 C          63.2306   86.2969   12.6720 C.2     1  UNL1        0.2403
     18 O          64.2631   86.0709   13.7364 O.2     1  UNL1       -0.2733
     19 N          62.8677   87.6939   12.2636 N.am    1  UNL1       -0.3045
     20 H          62.1900   87.8421   11.5651 H       1  UNL1        0.1494
     21 C          63.5374   88.8649   12.9196 C.3     1  UNL1        0.0750
     22 C          63.7762   90.1249   12.1415 C.3     1  UNL1        0.0412
     23 C          64.4459   91.2958   12.7975 C.3     1  UNL1        0.0984
     24 N          64.8767   91.2069   14.2315 N.am    1  UNL1       -0.2459
     25 C          65.5463   92.3780   14.8875 C.2     1  UNL1        0.4052
     26 O          65.9771   92.2890   16.3215 O.2     1  UNL1       -0.2262
     27 C          64.6378   89.9469   15.0096 C.3     1  UNL1        0.0984
     28 C          63.9682   88.7760   14.3536 C.3     1  UNL1        0.0412
     29 O          65.7852   93.6379   14.1094 O.3     1  UNL1       -0.4289
     30 C          66.8435   93.6741   13.0470 C.3     1  UNL1        0.2447
     31 C          66.5617   94.3340   11.7298 C.ar    1  UNL1        0.0714
     32 C          66.1026   95.7483   11.5326 C.ar    1  UNL1        0.1053
     33 N          65.9466   95.9840   10.0595 N.ar    1  UNL1       -0.2350
     34 C          66.3094   94.7152    9.3462 C.ar    1  UNL1        0.1343
     35 S          66.6895   93.6955   10.3785 S.2     1  UNL1       -0.0652
     36 C          62.5639   83.7859   12.6901 C.3     1  UNL1        0.0270
     37 C          62.7804   82.5406   11.8825 C.3     1  UNL1        0.0022
     38 C          62.3504   83.6912   14.1718 C.3     1  UNL1        0.0022
@<TRIPOS>BOND
     1    14    15    1
     2    15    16    1
     3    15     9    1
     4     9    10   ar
     5    10    11   ar
     6    11     8    1
     7     8     2    1
     8     2     3    1
     9     2     4   am
    10     4     5    2
    11     4     6   am
    12     1     6    1
    13     1    17    1
    14    17    18    2
    15    17    19   am
    16    19    21    1
    17    21    22    1
    18    22    23    1
    19    23    24    1
    20    24    25   am
    21    25    26    2
    22    25    29    1
    23    29    30    1
    24    30    31    1
    25    31    32   ar
    26    32    33   ar
    27    33    34   ar
    28    34    35   ar
    29    24    27    1
    30    27    28    1
    31     1    36    1
    32    36    37    1
    33    36    38    1
    34    11    12   ar
    35    12    13   ar
    36    13     9   ar
    37    28    21    1
    38    35    31   ar
    39     6     7    1
    40    19    20    1
@<TRIPOS>MOLECULE
*****
 38 40 0 0 0
SMALL
GASTEIGER

@<TRIPOS>ATOM
      1 C          63.5356   85.9732   14.0238 C.3     1  UNL1        0.1496
      2 N          62.4773   85.3361   10.2523 N.am    1  UNL1       -0.2567
      3 C          61.6402   85.9776    9.1857 C.3     1  UNL1        0.1168
      4 C          62.5879   85.9754   11.6047 C.2     1  UNL1        0.3046
      5 O          61.8613   87.2562   11.8906 O.2     1  UNL1       -0.2526
      6 N          63.4250   85.3339   12.6713 N.am    1  UNL1       -0.2824
      7 H          63.9019   84.4933   12.4837 H       1  UNL1        0.1514
      8 C          63.2038   84.0554    9.9664 C.3     1  UNL1        0.1413
      9 C          62.7479   81.3135   12.6757 C.ar    1  UNL1        0.0875
     10 N          62.1778   82.2676   11.6683 N.ar    1  UNL1       -0.2453
     11 C          63.3182   83.0044   11.0305 C.ar    1  UNL1        0.0858
     12 C          64.5930   82.5056   11.6437 C.ar    1  UNL1        0.0530
     13 S          64.2406   81.4606   12.6605 S.2     1  UNL1       -0.0705
     14 C          62.4803   78.9955   13.8179 C.3     1  UNL1        0.0069
     15 C          61.9630   80.3768   13.5455 C.3     1  UNL1        0.0465
     16 C          60.6609   80.8215   14.1428 C.3     1  UNL1        0.0069
     17 C          64.2499   87.2832   14.1780 C.2     1  UNL1        0.2403
     18 O          65.5255   87.3539   14.9639 O.2     1  UNL1       -0.2733
     19 N          63.6885   88.5225   13.5463 N.am    1  UNL1       -0.3045
     20 H          62.8512   88.4760   13.0305 H       1  UNL1        0.1494
     21 C          64.4028   89.8325   13.7005 C.3     1  UNL1        0.0750
     22 C          64.2722   90.8871   12.6419 C.3     1  UNL1        0.0412
     23 C          64.9864   92.1970   12.7961 C.3     1  UNL1        0.0984
     24 N          65.8313   92.4524   14.0090 N.am    1  UNL1       -0.2459
     25 C          66.5456   93.7624   14.1632 C.2     1  UNL1        0.4052
     26 O          67.3905   94.0177   15.3760 O.2     1  UNL1       -0.2262
     27 C          65.9619   91.3977   15.0676 C.3     1  UNL1        0.0984
     28 C          65.2477   90.0878   14.9133 C.3     1  UNL1        0.0412
     29 O          66.4150   94.8170   13.1046 O.3     1  UNL1       -0.4289
     30 C          65.9979   94.4370   11.7147 C.3     1  UNL1        0.2447
     31 C          66.6078   95.1303   10.5327 C.ar    1  UNL1        0.0714
     32 C          67.3997   94.4768    9.4391 C.ar    1  UNL1        0.1053
     33 N          67.8142   95.5415    8.4672 N.ar    1  UNL1       -0.2350
     34 C          67.2784   96.8531    8.9601 C.ar    1  UNL1        0.1343
     35 S          66.5328   96.5989   10.2366 S.2     1  UNL1       -0.0652
     36 C          62.9319   85.3025   15.2220 C.3     1  UNL1        0.0270
     37 C          62.3497   83.9258   15.0969 C.3     1  UNL1        0.0022
     38 C          62.9105   86.0085   16.5453 C.3     1  UNL1        0.0022
@<TRIPOS>BOND
     1    14    15    1
     2    15    16    1
     3    15     9    1
     4     9    10   ar
     5    10    11   ar
     6    11     8    1
     7     8     2    1
     8     2     3    1
     9     2     4   am
    10     4     5    2
    11     4     6   am
    12     1     6    1
    13     1    17    1
    14    17    18    2
    15    17    19   am
    16    19    21    1
    17    21    22    1
    18    22    23    1
    19    23    24    1
    20    24    25   am
    21    25    26    2
    22    25    29    1
    23    29    30    1
    24    30    31    1
    25    31    32   ar
    26    32    33   ar
    27    33    34   ar
    28    34    35   ar
    29    24    27    1
    30    27    28    1
    31     1    36    1
    32    36    37    1
    33    36    38    1
    34    11    12   ar
    35    12    13   ar
    36    13     9   ar
    37    28    21    1
    38    35    31   ar
    39     6     7    1
    40    19    20    1
@<TRIPOS>MOLECULE
*****
 38 40 0 0 0
SMALL
GASTEIGER

@<TRIPOS>ATOM
      1 C          63.1259   84.5452   11.6640 C.3     1  UNL1        0.1496
      2 N          63.2264   85.4839   15.5187 N.am    1  UNL1       -0.2567
      3 C          62.5179   85.1264   16.7916 C.3     1  UNL1        0.1168
      4 C          62.8219   84.8358   14.2278 C.2     1  UNL1        0.3046
      5 O          61.7091   83.8302   14.2098 O.2     1  UNL1       -0.2526
      6 N          63.5303   85.1933   12.9549 N.am    1  UNL1       -0.2824
      7 H          64.2608   85.8533   12.9667 H       1  UNL1        0.1514
      8 C          64.3392   86.4894   15.5367 C.3     1  UNL1        0.1413
      9 C          63.8584   89.9386   13.8227 C.ar    1  UNL1        0.0875
     10 N          64.2346   88.4877   13.7643 N.ar    1  UNL1       -0.2453
     11 C          64.0720   87.9110   15.1395 C.ar    1  UNL1        0.0858
     12 C          63.5954   89.0055   16.0477 C.ar    1  UNL1        0.0530
     13 S          63.4633   90.2586   15.2339 S.2     1  UNL1       -0.0705
     14 C          62.8294   90.8051   11.6000 C.3     1  UNL1        0.0069
     15 C          63.8745   90.9005   12.6718 C.3     1  UNL1        0.0465
     16 C          64.9356   91.9578   12.5927 C.3     1  UNL1        0.0069
     17 C          62.5192   85.3706   10.5682 C.2     1  UNL1        0.2403
     18 O          62.9904   85.2026    9.1541 O.2     1  UNL1       -0.2733
     19 N          61.4413   86.3639   10.8866 N.am    1  UNL1       -0.3045
     20 H          61.1320   86.4741   11.8147 H       1  UNL1        0.1494
     21 C          60.8345   87.1893    9.7908 C.3     1  UNL1        0.0750
     22 C          61.2364   88.6246    9.6227 C.3     1  UNL1        0.0412
     23 C          60.6297   89.4499    8.5270 C.3     1  UNL1        0.0984
     24 N          59.6210   88.8399    7.5994 N.am    1  UNL1       -0.2459
     25 C          59.0143   89.6653    6.5036 C.2     1  UNL1        0.4052
     26 O          58.0056   89.0553    5.5760 O.2     1  UNL1       -0.2262
     27 C          59.2191   87.4046    7.7675 C.3     1  UNL1        0.0984
     28 C          59.8258   86.5793    8.8632 C.3     1  UNL1        0.0412
     29 O          59.4162   91.1006    6.3355 O.3     1  UNL1       -0.4289
     30 C          59.0791   91.8305    5.0691 C.3     1  UNL1        0.2447
     31 C          60.1550   92.1329    4.0686 C.ar    1  UNL1        0.0714
     32 C          61.5528   91.5891    4.0856 C.ar    1  UNL1        0.1053
     33 N          62.2837   92.1523    2.9030 N.ar    1  UNL1       -0.2350
     34 C          61.3375   93.0442    2.1550 C.ar    1  UNL1        0.1343
     35 S          60.0219   93.0322    2.8754 S.2     1  UNL1       -0.0652
     36 C          63.3282   83.0718   11.4688 C.3     1  UNL1        0.0270
     37 C          62.3547   82.0963   12.0608 C.3     1  UNL1        0.0022
     38 C          64.5041   82.5740   10.6817 C.3     1  UNL1        0.0022
@<TRIPOS>BOND
     1    14    15    1
     2    15    16    1
     3    15     9    1
     4     9    10   ar
     5    10    11   ar
     6    11     8    1
     7     8     2    1
     8     2     3    1
     9     2     4   am
    10     4     5    2
    11     4     6   am
    12     1     6    1
    13     1    17    1
    14    17    18    2
    15    17    19   am
    16    19    21    1
    17    21    22    1
    18    22    23    1
    19    23    24    1
    20    24    25   am
    21    25    26    2
    22    25    29    1
    23    29    30    1
    24    30    31    1
    25    31    32   ar
    26    32    33   ar
    27    33    34   ar
    28    34    35   ar
    29    24    27    1
    30    27    28    1
    31     1    36    1
    32    36    37    1
    33    36    38    1
    34    11    12   ar
    35    12    13   ar
    36    13     9   ar
    37    28    21    1
    38    35    31   ar
    39     6     7    1
    40    19    20    1
