@<TRIPOS>MOLECULE
*****
 25 27 0 0 0
SMALL
GASTEIGER

@<TRIPOS>ATOM
      1 C          62.8366   85.1637   12.0319 C.ar    1  UNL1        0.0533
      2 C          63.5338   85.9869   13.0741 C.ar    1  UNL1        0.0824
      3 C          64.3299   85.4566   14.2294 C.3     1  UNL1        0.0540
      4 N          63.2950   87.4337   12.7580 N.ar    1  UNL1       -0.1681
      5 N          62.4503   87.5046   11.5205 N.ar    1  UNL1       -0.2085
      6 C          61.9024   88.6654   10.7444 C.ar    1  UNL1        0.1569
      7 C          61.0713   88.4232    9.5194 C.ar    1  UNL1        0.0379
      8 C          60.7881   87.0202    9.0706 C.ar    1  UNL1        0.0625
      9 C          59.9569   86.7780    7.8456 C.3     1  UNL1        0.0522
     10 N          61.3359   85.8594    9.8467 N.ar    1  UNL1       -0.2308
     11 C          62.1670   86.1016   11.0717 C.ar    1  UNL1        0.1645
     12 C          62.7664   80.6691   11.8224 C.ar    1  UNL1        0.1682
     13 C          63.3685   81.4628   10.7010 C.ar    1  UNL1        0.0688
     14 C          63.3919   82.9610   10.7709 C.ar    1  UNL1        0.1434
     15 F          63.9940   83.7548    9.6494 F       1  UNL1       -0.2041
     16 C          62.8133   83.6655   11.9620 C.ar    1  UNL1        0.0341
     17 C          62.2112   82.8717   13.0834 C.ar    1  UNL1        0.0351
     18 C          62.1878   81.3735   13.0136 C.ar    1  UNL1        0.1740
     19 F          61.5857   80.5798   14.1349 F       1  UNL1       -0.2010
     20 C          62.7738   78.4816   10.4207 C.3     1  UNL1        0.2526
     21 O          62.7430   79.1709   11.7525 O.3     1  UNL1       -0.4691
     22 C          62.1857   90.0683   11.1932 C.3     1  UNL1        0.4350
     23 F          62.4690   91.4713   11.6420 F       1  UNL1       -0.1644
     24 F          61.1359   89.9400   12.2570 F       1  UNL1       -0.1644
     25 F          63.2354   90.1967   10.1295 F       1  UNL1       -0.1644
@<TRIPOS>BOND
     1    20    21    1
     2    21    12    1
     3    12    13   ar
     4    13    14   ar
     5    14    15    1
     6    14    16   ar
     7    16     1    1
     8     1     2   ar
     9     2     3    1
    10     2     4   ar
    11     4     5   ar
    12     5     6   ar
    13     6    22    1
    14    22    23    1
    15    22    24    1
    16    22    25    1
    17     6     7   ar
    18     7     8   ar
    19     8     9    1
    20     8    10   ar
    21    10    11   ar
    22    16    17   ar
    23    17    18   ar
    24    18    19    1
    25    18    12   ar
    26    11     1   ar
    27    11     5   ar
@<TRIPOS>MOLECULE
*****
 25 27 0 0 0
SMALL
GASTEIGER

@<TRIPOS>ATOM
      1 C          63.1432   89.4603   11.7782 C.ar    1  UNL1        0.0533
      2 C          62.6468   90.0614   10.4966 C.ar    1  UNL1        0.0824
      3 C          62.6964   91.5142   10.1269 C.3     1  UNL1        0.0540
      4 N          62.0922   88.9544    9.6499 N.ar    1  UNL1       -0.1681
      5 N          62.2458   87.6693   10.4080 N.ar    1  UNL1       -0.2085
      6 C          61.8781   86.2548   10.0706 C.ar    1  UNL1        0.1569
      7 C          62.1600   85.1529   11.0485 C.ar    1  UNL1        0.0379
      8 C          62.8096   85.4656   12.3639 C.ar    1  UNL1        0.0625
      9 C          63.0915   84.3637   13.3419 C.3     1  UNL1        0.0522
     10 N          63.1773   86.8801   12.7014 N.ar    1  UNL1       -0.2308
     11 C          62.8954   87.9819   11.7234 C.ar    1  UNL1        0.1645
     12 C          65.0426   91.6992   15.1885 C.ar    1  UNL1        0.1682
     13 C          65.4787   91.9688   13.7789 C.ar    1  UNL1        0.0688
     14 C          64.8456   91.2225   12.6422 C.ar    1  UNL1        0.1434
     15 F          65.2819   91.4923   11.2325 F       1  UNL1       -0.2041
     16 C          63.7764   90.2066   12.9149 C.ar    1  UNL1        0.0341
     17 C          63.3402   89.9369   14.3246 C.ar    1  UNL1        0.0351
     18 C          63.9733   90.6832   15.4614 C.ar    1  UNL1        0.1740
     19 F          63.5371   90.4135   16.8710 F       1  UNL1       -0.2010
     20 C          67.1218   92.8371   16.2524 C.3     1  UNL1        0.2526
     21 O          65.6757   92.4454   16.3253 O.3     1  UNL1       -0.4691
     22 C          61.2285   85.9421    8.7552 C.3     1  UNL1        0.4350
     23 F          60.5789   85.6295    7.4398 F       1  UNL1       -0.1644
     24 F          59.9180   86.4469    9.2824 F       1  UNL1       -0.1644
     25 F          62.5389   85.4374    8.2280 F       1  UNL1       -0.1644
@<TRIPOS>BOND
     1    20    21    1
     2    21    12    1
     3    12    13   ar
     4    13    14   ar
     5    14    15    1
     6    14    16   ar
     7    16     1    1
     8     1     2   ar
     9     2     3    1
    10     2     4   ar
    11     4     5   ar
    12     5     6   ar
    13     6    22    1
    14    22    23    1
    15    22    24    1
    16    22    25    1
    17     6     7   ar
    18     7     8   ar
    19     8     9    1
    20     8    10   ar
    21    10    11   ar
    22    16    17   ar
    23    17    18   ar
    24    18    19    1
    25    18    12   ar
    26    11     1   ar
    27    11     5   ar
@<TRIPOS>MOLECULE
*****
 25 27 0 0 0
SMALL
GASTEIGER

@<TRIPOS>ATOM
      1 C          62.5386   88.5112   10.9745 C.ar    1  UNL1        0.0533
      2 C          62.6030   90.0081   10.9042 C.ar    1  UNL1        0.0824
      3 C          62.1221   90.8589    9.7662 C.3     1  UNL1        0.0540
      4 N          63.2327   90.5050   12.1717 N.ar    1  UNL1       -0.1681
      5 N          63.5575   89.3151   13.0254 N.ar    1  UNL1       -0.2085
      6 C          64.1884   89.1945   14.3808 C.ar    1  UNL1        0.1569
      7 C          64.3904   87.8416   14.9963 C.ar    1  UNL1        0.0379
      8 C          63.9614   86.6093   14.2564 C.ar    1  UNL1        0.0625
      9 C          64.1634   85.2564   14.8720 C.3     1  UNL1        0.0522
     10 N          63.3305   86.7299   12.9009 N.ar    1  UNL1       -0.2308
     11 C          63.1285   88.0828   12.2854 C.ar    1  UNL1        0.1645
     12 C          60.8690   85.7839    7.8083 C.ar    1  UNL1        0.1682
     13 C          59.9939   86.8276    8.4367 C.ar    1  UNL1        0.0688
     14 C          60.5505   87.7367    9.4921 C.ar    1  UNL1        0.1434
     15 F          59.6753   88.7804   10.1205 F       1  UNL1       -0.2041
     16 C          61.9820   87.6021    9.9191 C.ar    1  UNL1        0.0341
     17 C          62.8572   86.5583    9.2906 C.ar    1  UNL1        0.0351
     18 C          62.3006   85.6492    8.2353 C.ar    1  UNL1        0.1740
     19 F          63.1757   84.6056    7.6069 F       1  UNL1       -0.2010
     20 C          61.2361   84.1900    5.7896 C.3     1  UNL1        0.2526
     21 O          60.3124   84.8748    6.7529 O.3     1  UNL1       -0.4691
     22 C          64.6174   90.4267   15.1208 C.3     1  UNL1        0.4350
     23 F          65.0463   91.6590   15.8607 F       1  UNL1       -0.1644
     24 F          65.7471   90.6151   14.1521 F       1  UNL1       -0.1644
     25 F          63.4877   90.2383   16.0894 F       1  UNL1       -0.1644
@<TRIPOS>BOND
     1    20    21    1
     2    21    12    1
     3    12    13   ar
     4    13    14   ar
     5    14    15    1
     6    14    16   ar
     7    16     1    1
     8     1     2   ar
     9     2     3    1
    10     2     4   ar
    11     4     5   ar
    12     5     6   ar
    13     6    22    1
    14    22    23    1
    15    22    24    1
    16    22    25    1
    17     6     7   ar
    18     7     8   ar
    19     8     9    1
    20     8    10   ar
    21    10    11   ar
    22    16    17   ar
    23    17    18   ar
    24    18    19    1
    25    18    12   ar
    26    11     1   ar
    27    11     5   ar
@<TRIPOS>MOLECULE
*****
 25 27 0 0 0
SMALL
GASTEIGER

@<TRIPOS>ATOM
      1 C          63.7441   90.3913   13.0927 C.ar    1  UNL1        0.0533
      2 C          63.8909   90.2193   14.5755 C.ar    1  UNL1        0.0824
      3 C          63.0747   89.3070   15.4424 C.3     1  UNL1        0.0540
      4 N          64.9972   91.1198   15.0393 N.ar    1  UNL1       -0.1681
      5 N          65.5342   91.8484   13.8431 N.ar    1  UNL1       -0.2085
      6 C          66.6283   92.8636   13.6939 C.ar    1  UNL1        0.1569
      7 C          66.9479   93.4285   12.3417 C.ar    1  UNL1        0.0379
      8 C          66.1733   92.9783   11.1386 C.ar    1  UNL1        0.0625
      9 C          66.4930   93.5433    9.7863 C.3     1  UNL1        0.0522
     10 N          65.0792   91.9631   11.2877 N.ar    1  UNL1       -0.2308
     11 C          64.7597   91.3982   12.6400 C.ar    1  UNL1        0.1645
     12 C          60.7776   88.2611   10.4635 C.ar    1  UNL1        0.1682
     13 C          61.8278   87.4794   11.1956 C.ar    1  UNL1        0.0688
     14 C          62.8166   88.1895   12.0720 C.ar    1  UNL1        0.1434
     15 F          63.8669   87.4077   12.8040 F       1  UNL1       -0.2041
     16 C          62.7552   89.6812   12.2163 C.ar    1  UNL1        0.0341
     17 C          61.7049   90.4630   11.4842 C.ar    1  UNL1        0.0351
     18 C          60.7161   89.7529   10.6078 C.ar    1  UNL1        0.1740
     19 F          59.6659   90.5346    9.8758 F       1  UNL1       -0.2010
     20 C          60.2616   86.5216    8.6040 C.3     1  UNL1        0.2526
     21 O          59.7887   87.5510    9.5872 O.3     1  UNL1       -0.4691
     22 C          67.4028   93.3138   14.8970 C.3     1  UNL1        0.4350
     23 F          68.1773   93.7640   16.1001 F       1  UNL1       -0.1644
     24 F          67.8837   91.9095   15.1129 F       1  UNL1       -0.1644
     25 F          66.9218   94.7181   14.6811 F       1  UNL1       -0.1644
@<TRIPOS>BOND
     1    20    21    1
     2    21    12    1
     3    12    13   ar
     4    13    14   ar
     5    14    15    1
     6    14    16   ar
     7    16     1    1
     8     1     2   ar
     9     2     3    1
    10     2     4   ar
    11     4     5   ar
    12     5     6   ar
    13     6    22    1
    14    22    23    1
    15    22    24    1
    16    22    25    1
    17     6     7   ar
    18     7     8   ar
    19     8     9    1
    20     8    10   ar
    21    10    11   ar
    22    16    17   ar
    23    17    18   ar
    24    18    19    1
    25    18    12   ar
    26    11     1   ar
    27    11     5   ar
@<TRIPOS>MOLECULE
*****
 25 27 0 0 0
SMALL
GASTEIGER

@<TRIPOS>ATOM
      1 C          64.2820   90.4813   13.3645 C.ar    1  UNL1        0.0533
      2 C          63.6583   90.6032   12.0058 C.ar    1  UNL1        0.0824
      3 C          62.6467   89.6678   11.4128 C.3     1  UNL1        0.0540
      4 N          64.2240   91.8248   11.3441 N.ar    1  UNL1       -0.1681
      5 N          65.1972   92.4578   12.2939 N.ar    1  UNL1       -0.2085
      6 C          66.0554   93.6830   12.1831 C.ar    1  UNL1        0.1569
      7 C          66.9494   94.0779   13.3209 C.ar    1  UNL1        0.0379
      8 C          66.9853   93.2475   14.5696 C.ar    1  UNL1        0.0625
      9 C          67.8794   93.6424   15.7075 C.3     1  UNL1        0.0522
     10 N          66.1271   92.0223   14.6804 N.ar    1  UNL1       -0.2308
     11 C          65.2331   91.6274   13.5426 C.ar    1  UNL1        0.1645
     12 C          63.4466   87.2449   16.3775 C.ar    1  UNL1        0.1682
     13 C          63.1916   88.6806   16.7288 C.ar    1  UNL1        0.0688
     14 C          63.4701   89.7594   15.7245 C.ar    1  UNL1        0.1434
     15 F          63.2150   91.1952   16.0759 F       1  UNL1       -0.2041
     16 C          64.0035   89.4025   14.3688 C.ar    1  UNL1        0.0341
     17 C          64.2586   87.9666   14.0175 C.ar    1  UNL1        0.0351
     18 C          63.9801   86.8878   15.0218 C.ar    1  UNL1        0.1740
     19 F          64.2352   85.4521   14.6704 F       1  UNL1       -0.2010
     20 C          62.7181   86.5282   18.7662 C.3     1  UNL1        0.2526
     21 O          63.1681   86.1661   17.3819 O.3     1  UNL1       -0.4691
     22 C          66.0195   94.5134   10.9344 C.3     1  UNL1        0.4350
     23 F          65.9836   95.3438    9.6857 F       1  UNL1       -0.1644
     24 F          66.3352   93.2966   10.1161 F       1  UNL1       -0.1644
     25 F          65.7038   95.7303   11.7527 F       1  UNL1       -0.1644
@<TRIPOS>BOND
     1    20    21    1
     2    21    12    1
     3    12    13   ar
     4    13    14   ar
     5    14    15    1
     6    14    16   ar
     7    16     1    1
     8     1     2   ar
     9     2     3    1
    10     2     4   ar
    11     4     5   ar
    12     5     6   ar
    13     6    22    1
    14    22    23    1
    15    22    24    1
    16    22    25    1
    17     6     7   ar
    18     7     8   ar
    19     8     9    1
    20     8    10   ar
    21    10    11   ar
    22    16    17   ar
    23    17    18   ar
    24    18    19    1
    25    18    12   ar
    26    11     1   ar
    27    11     5   ar
@<TRIPOS>MOLECULE
*****
 25 27 0 0 0
SMALL
GASTEIGER

@<TRIPOS>ATOM
      1 C          62.9613   85.1945   12.3902 C.ar    1  UNL1        0.0533
      2 C          63.7203   85.9984   13.4039 C.ar    1  UNL1        0.0824
      3 C          64.5234   85.4470   14.5445 C.3     1  UNL1        0.0540
      4 N          63.5351   87.4505   13.0768 N.ar    1  UNL1       -0.1681
      5 N          62.6616   87.5441   11.8609 N.ar    1  UNL1       -0.2085
      6 C          62.1434   88.7187   11.0853 C.ar    1  UNL1        0.1569
      7 C          61.2705   88.4991    9.8854 C.ar    1  UNL1        0.0379
      8 C          60.9159   87.1047    9.4611 C.ar    1  UNL1        0.0625
      9 C          60.0430   86.8851    8.2611 C.3     1  UNL1        0.0522
     10 N          61.4341   85.9301   10.2367 N.ar    1  UNL1       -0.2308
     11 C          62.3070   86.1497   11.4365 C.ar    1  UNL1        0.1645
     12 C          62.6940   80.7050   12.2367 C.ar    1  UNL1        0.1682
     13 C          62.2423   81.4418   13.4627 C.ar    1  UNL1        0.0688
     14 C          62.3314   82.9383   13.5139 C.ar    1  UNL1        0.1434
     15 F          61.8797   83.6750   14.7400 F       1  UNL1       -0.2041
     16 C          62.8722   83.6980   12.3391 C.ar    1  UNL1        0.0341
     17 C          63.3238   82.9612   11.1129 C.ar    1  UNL1        0.0351
     18 C          63.2347   81.4647   11.0618 C.ar    1  UNL1        0.1740
     19 F          63.6864   80.7280    9.8358 F       1  UNL1       -0.2010
     20 C          62.6057   78.5019   10.8624 C.3     1  UNL1        0.2526
     21 O          62.6049   79.2085   12.1856 O.3     1  UNL1       -0.4691
     22 C          62.4980   90.1131   11.5096 C.3     1  UNL1        0.4350
     23 F          62.8527   91.5074   11.9340 F       1  UNL1       -0.1644
     24 F          63.3708   90.2596   10.2986 F       1  UNL1       -0.1644
     25 F          61.6252   89.9665   12.7207 F       1  UNL1       -0.1644
@<TRIPOS>BOND
     1    20    21    1
     2    21    12    1
     3    12    13   ar
     4    13    14   ar
     5    14    15    1
     6    14    16   ar
     7    16     1    1
     8     1     2   ar
     9     2     3    1
    10     2     4   ar
    11     4     5   ar
    12     5     6   ar
    13     6    22    1
    14    22    23    1
    15    22    24    1
    16    22    25    1
    17     6     7   ar
    18     7     8   ar
    19     8     9    1
    20     8    10   ar
    21    10    11   ar
    22    16    17   ar
    23    17    18   ar
    24    18    19    1
    25    18    12   ar
    26    11     1   ar
    27    11     5   ar
@<TRIPOS>MOLECULE
*****
 25 27 0 0 0
SMALL
GASTEIGER

@<TRIPOS>ATOM
      1 C          63.4253   89.6680   12.0386 C.ar    1  UNL1        0.0533
      2 C          62.8447   90.2213   10.7710 C.ar    1  UNL1        0.0824
      3 C          62.9024   91.6525   10.3259 C.3     1  UNL1        0.0540
      4 N          62.1962   89.0919   10.0267 N.ar    1  UNL1       -0.1681
      5 N          62.3759   87.8407   10.8342 N.ar    1  UNL1       -0.2085
      6 C          61.9461   86.4232   10.5980 C.ar    1  UNL1        0.1569
      7 C          62.2759   85.3618   11.6052 C.ar    1  UNL1        0.0379
      8 C          63.0355   85.7178   12.8486 C.ar    1  UNL1        0.0625
      9 C          63.3653   84.6563   13.8559 C.3     1  UNL1        0.0522
     10 N          63.4654   87.1353   13.0849 N.ar    1  UNL1       -0.2308
     11 C          63.1356   88.1968   12.0777 C.ar    1  UNL1        0.1645
     12 C          65.6463   92.0107   15.1737 C.ar    1  UNL1        0.1682
     13 C          64.4365   91.2092   15.5531 C.ar    1  UNL1        0.0688
     14 C          63.6962   90.4283   14.5081 C.ar    1  UNL1        0.1434
     15 F          62.4864   89.6268   14.8876 F       1  UNL1       -0.2041
     16 C          64.1656   90.4489   13.0836 C.ar    1  UNL1        0.0341
     17 C          65.3755   91.2504   12.7042 C.ar    1  UNL1        0.0351
     18 C          66.1158   92.0313   13.7492 C.ar    1  UNL1        0.1740
     19 F          67.3256   92.8328   13.3697 F       1  UNL1       -0.2010
     20 C          67.8778   92.6716   16.3286 C.3     1  UNL1        0.2526
     21 O          66.3866   92.7916   16.2188 O.3     1  UNL1       -0.4691
     22 C          61.1864   86.0672    9.3545 C.3     1  UNL1        0.4350
     23 F          60.4268   85.7111    8.1111 F       1  UNL1       -0.1644
     24 F          62.3921   85.3500    8.8234 F       1  UNL1       -0.1644
     25 F          59.9808   86.7843    9.8857 F       1  UNL1       -0.1644
@<TRIPOS>BOND
     1    20    21    1
     2    21    12    1
     3    12    13   ar
     4    13    14   ar
     5    14    15    1
     6    14    16   ar
     7    16     1    1
     8     1     2   ar
     9     2     3    1
    10     2     4   ar
    11     4     5   ar
    12     5     6   ar
    13     6    22    1
    14    22    23    1
    15    22    24    1
    16    22    25    1
    17     6     7   ar
    18     7     8   ar
    19     8     9    1
    20     8    10   ar
    21    10    11   ar
    22    16    17   ar
    23    17    18   ar
    24    18    19    1
    25    18    12   ar
    26    11     1   ar
    27    11     5   ar
@<TRIPOS>MOLECULE
*****
 25 27 0 0 0
SMALL
GASTEIGER

@<TRIPOS>ATOM
      1 C          63.0838   90.2417   12.0478 C.ar    1  UNL1        0.0533
      2 C          63.8959   91.3696   11.4836 C.ar    1  UNL1        0.0824
      3 C          63.8936   91.8297   10.0559 C.3     1  UNL1        0.0540
      4 N          64.7107   91.9566   12.5978 N.ar    1  UNL1       -0.1681
      5 N          64.4022   91.1916   13.8506 N.ar    1  UNL1       -0.2085
      6 C          64.9070   91.3231   15.2570 C.ar    1  UNL1        0.1569
      7 C          64.4063   90.3947   16.3234 C.ar    1  UNL1        0.0379
      8 C          63.4008   89.3348   15.9835 C.ar    1  UNL1        0.0625
      9 C          62.9000   88.4063   17.0500 C.3     1  UNL1        0.0522
     10 N          62.8960   89.2032   14.5771 N.ar    1  UNL1       -0.2308
     11 C          63.3967   90.1316   13.5107 C.ar    1  UNL1        0.1645
     12 C          60.2128   87.6439    9.7544 C.ar    1  UNL1        0.1682
     13 C          59.8598   89.0713   10.0513 C.ar    1  UNL1        0.0688
     14 C          60.8168   89.9371   10.8158 C.ar    1  UNL1        0.1434
     15 F          60.4637   91.3645   11.1126 F       1  UNL1       -0.2041
     16 C          62.1268   89.3758   11.2834 C.ar    1  UNL1        0.0341
     17 C          62.4799   87.9484   10.9865 C.ar    1  UNL1        0.0351
     18 C          61.5229   87.0825   10.2220 C.ar    1  UNL1        0.1740
     19 F          61.8760   85.6553    9.9252 F       1  UNL1       -0.2010
     20 C          59.3002   86.7533    7.4909 C.3     1  UNL1        0.2526
     21 O          59.2558   86.7781    8.9900 O.3     1  UNL1       -0.4691
     22 C          65.9125   92.3830   15.5969 C.3     1  UNL1        0.4350
     23 F          66.9180   93.4429   15.9368 F       1  UNL1       -0.1644
     24 F          65.0318   92.8604   16.7134 F       1  UNL1       -0.1644
     25 F          66.7932   91.9056   14.4804 F       1  UNL1       -0.1644
@<TRIPOS>BOND
     1    20    21    1
     2    21    12    1
     3    12    13   ar
     4    13    14   ar
     5    14    15    1
     6    14    16   ar
     7    16     1    1
     8     1     2   ar
     9     2     3    1
    10     2     4   ar
    11     4     5   ar
    12     5     6   ar
    13     6    22    1
    14    22    23    1
    15    22    24    1
    16    22    25    1
    17     6     7   ar
    18     7     8   ar
    19     8     9    1
    20     8    10   ar
    21    10    11   ar
    22    16    17   ar
    23    17    18   ar
    24    18    19    1
    25    18    12   ar
    26    11     1   ar
    27    11     5   ar
@<TRIPOS>MOLECULE
*****
 25 27 0 0 0
SMALL
GASTEIGER

@<TRIPOS>ATOM
      1 C          62.6959   86.0633   11.2550 C.ar    1  UNL1        0.0533
      2 C          62.1786   86.4318    9.8962 C.ar    1  UNL1        0.0824
      3 C          61.6962   85.4745    8.8469 C.3     1  UNL1        0.0540
      4 N          62.2283   87.9257    9.7708 N.ar    1  UNL1       -0.1681
      5 N          62.7764   88.4805   11.0522 N.ar    1  UNL1       -0.2085
      6 C          63.0496   89.8850   11.5022 C.ar    1  UNL1        0.1569
      7 C          63.6118   90.1385   12.8695 C.ar    1  UNL1        0.0379
      8 C          63.9008   88.9874   13.7868 C.ar    1  UNL1        0.0625
      9 C          64.4630   89.2409   15.1542 C.3     1  UNL1        0.0522
     10 N          63.6276   87.5828   13.3368 N.ar    1  UNL1       -0.2308
     11 C          63.0653   87.3294   11.9695 C.ar    1  UNL1        0.1645
     12 C          63.0732   81.8916   12.8998 C.ar    1  UNL1        0.1682
     13 C          63.6133   82.2125   11.5377 C.ar    1  UNL1        0.0688
     14 C          63.4875   83.6030   10.9895 C.ar    1  UNL1        0.1434
     15 F          64.0277   83.9238    9.6273 F       1  UNL1       -0.2041
     16 C          62.8217   84.6727   11.8032 C.ar    1  UNL1        0.0341
     17 C          62.2815   84.3518   13.1654 C.ar    1  UNL1        0.0351
     18 C          62.4073   82.9612   13.7136 C.ar    1  UNL1        0.1740
     19 F          61.8672   82.6404   15.0757 F       1  UNL1       -0.2010
     20 C          61.9793   79.6408   13.5979 C.3     1  UNL1        0.2526
     21 O          63.1989   80.5010   13.4480 O.3     1  UNL1       -0.4691
     22 C          62.7606   91.0361   10.5849 C.3     1  UNL1        0.4350
     23 F          62.4717   92.1872    9.6675 F       1  UNL1       -0.1644
     24 F          64.2306   91.3096   10.4650 F       1  UNL1       -0.1644
     25 F          61.2907   90.7626   10.7047 F       1  UNL1       -0.1644
@<TRIPOS>BOND
     1    20    21    1
     2    21    12    1
     3    12    13   ar
     4    13    14   ar
     5    14    15    1
     6    14    16   ar
     7    16     1    1
     8     1     2   ar
     9     2     3    1
    10     2     4   ar
    11     4     5   ar
    12     5     6   ar
    13     6    22    1
    14    22    23    1
    15    22    24    1
    16    22    25    1
    17     6     7   ar
    18     7     8   ar
    19     8     9    1
    20     8    10   ar
    21    10    11   ar
    22    16    17   ar
    23    17    18   ar
    24    18    19    1
    25    18    12   ar
    26    11     1   ar
    27    11     5   ar
