@<TRIPOS>MOLECULE
*****
 34 38 0 0 0
SMALL
GASTEIGER

@<TRIPOS>ATOM
      1 C          63.9537   89.1854   15.3727 C.ar    1  UNL1        0.2037
      2 N          63.2732   90.1969   16.2467 N.ar    1  UNL1       -0.0555
      3 O          63.7306   91.5603   15.8204 O.2     1  UNL1       -0.3291
      4 C          64.6937   91.3915   14.6828 C.ar    1  UNL1        0.2973
      5 N          64.8316   89.9237   14.4062 N.ar    1  UNL1       -0.1843
      6 C          63.4497   84.7199   15.6086 C.ar    1  UNL1       -0.0061
      7 C          64.0839   85.3402   14.3991 C.ar    1  UNL1       -0.0028
      8 C          64.2518   86.8287   14.3204 C.ar    1  UNL1        0.0029
      9 C          63.7856   87.6968   15.4513 C.ar    1  UNL1        0.0391
     10 C          63.1515   87.0766   16.6609 C.ar    1  UNL1        0.0029
     11 C          62.9835   85.5881   16.7395 C.ar    1  UNL1       -0.0028
     12 C          63.2817   83.2314   15.6873 C.3     1  UNL1        0.0992
     13 C          63.0481   81.2725   12.6505 C.3     1  UNL1        0.0684
     14 C          64.1678   81.9132   13.4159 C.3     1  UNL1        0.0793
     15 N          63.1849   82.4200   14.4294 N.3     1  UNL1       -0.2682
     16 C          62.0653   81.7793   13.6640 C.3     1  UNL1        0.0793
     17 O          62.6129   79.0017   11.4657 O.co2   1  UNL1       -0.5491
     18 C          62.9513   80.4611   11.3926 C.2     1  UNL1        0.0527
     19 O          63.1930   81.1092   10.0616 O.co2   1  UNL1       -0.5491
     20 C          65.3957   92.4965   13.9506 C.ar    1  UNL1        0.2363
     21 O          66.2544   93.5587   14.5706 O.2     1  UNL1       -0.3486
     22 N          66.7517   94.4520   13.4729 N.ar    1  UNL1       -0.0768
     23 C          66.2003   93.9418   12.1746 C.ar    1  UNL1        0.1270
     24 C          65.3624   92.7333   12.4698 C.ar    1  UNL1        0.1340
     25 C          66.4442   94.5359   10.8191 C.ar    1  UNL1        0.0209
     26 C          67.4805   93.9385    9.9138 C.ar    1  UNL1        0.0016
     27 C          67.7244   94.5326    8.5582 C.ar    1  UNL1        0.0000
     28 C          66.9322   95.7241    8.1080 C.ar    1  UNL1        0.0000
     29 C          65.8960   96.3215    9.0132 C.ar    1  UNL1        0.0000
     30 C          65.6521   95.7274   10.3687 C.ar    1  UNL1        0.0016
     31 C          64.6211   91.9066   11.4613 C.3     1  UNL1        0.4232
     32 F          63.8798   91.0800   10.4527 F       1  UNL1       -0.1657
     33 F          65.8599   91.8226   10.6196 F       1  UNL1       -0.1657
     34 F          63.3823   91.9907   12.3029 F       1  UNL1       -0.1657
@<TRIPOS>UNITY_ATOM_ATTR
17 1
charge -1
@<TRIPOS>BOND
     1    17    18   ar
     2    18    19   ar
     3    18    13    1
     4    13    14    1
     5    14    15    1
     6    15    12    1
     7    12     6    1
     8     6     7   ar
     9     7     8   ar
    10     8     9   ar
    11     9     1    1
    12     1     2   ar
    13     2     3   ar
    14     3     4   ar
    15     4    20    1
    16    20    21   ar
    17    21    22   ar
    18    22    23   ar
    19    23    25    1
    20    25    26   ar
    21    26    27   ar
    22    27    28   ar
    23    28    29   ar
    24    29    30   ar
    25    23    24   ar
    26    24    31    1
    27    31    32    1
    28    31    33    1
    29    31    34    1
    30     4     5   ar
    31     9    10   ar
    32    10    11   ar
    33    15    16    1
    34    16    13    1
    35    11     6   ar
    36     5     1   ar
    37    24    20   ar
    38    30    25   ar
@<TRIPOS>MOLECULE
*****
 34 38 0 0 0
SMALL
GASTEIGER

@<TRIPOS>ATOM
      1 C          59.3943   89.4828    6.5864 C.ar    1  UNL1        0.2037
      2 N          58.1714   88.6342    6.7719 N.ar    1  UNL1       -0.0555
      3 O          58.4238   87.7019    7.9195 O.2     1  UNL1       -0.3291
      4 C          59.8027   87.9744    8.4434 C.ar    1  UNL1        0.2973
      5 N          60.4025   89.0750    7.6195 N.ar    1  UNL1       -0.1843
      6 C          59.9423   92.6891    3.4769 C.ar    1  UNL1       -0.0061
      7 C          61.1247   91.9023    3.9592 C.ar    1  UNL1       -0.0028
      8 C          60.9420   90.8335    4.9957 C.ar    1  UNL1        0.0029
      9 C          59.5770   90.5516    5.5499 C.ar    1  UNL1        0.0391
     10 C          58.3946   91.3385    5.0676 C.ar    1  UNL1        0.0029
     11 C          58.5772   92.4072    4.0311 C.ar    1  UNL1       -0.0028
     12 C          60.1249   93.7579    2.4403 C.3     1  UNL1        0.0992
     13 C          63.2690   94.0412    0.6661 C.3     1  UNL1        0.0684
     14 C          62.5393   94.8814    1.6718 C.3     1  UNL1        0.0793
     15 N          61.4273   93.8752    1.7054 N.3     1  UNL1       -0.2682
     16 C          62.1570   93.0350    0.6997 C.3     1  UNL1        0.0793
     17 O          64.6431   94.9384   -1.3482 O.co2   1  UNL1       -0.5491
     18 C          64.5714   94.1585   -0.0689 C.2     1  UNL1        0.0527
     19 O          65.8021   93.4958    0.4754 O.co2   1  UNL1       -0.5491
     20 C          60.4654   87.2698    9.5899 C.ar    1  UNL1        0.2363
     21 O          60.2399   87.5501   11.0461 O.2     1  UNL1       -0.3486
     22 N          61.1051   86.6148   11.8376 N.ar    1  UNL1       -0.0768
     23 C          61.8654   85.7564   10.8706 C.ar    1  UNL1        0.1270
     24 C          61.4701   86.1613    9.4815 C.ar    1  UNL1        0.1340
     25 C          62.8484   84.6820   11.2298 C.ar    1  UNL1        0.0209
     26 C          63.3321   84.5501   12.6437 C.ar    1  UNL1        0.0016
     27 C          64.3152   83.4756   13.0029 C.ar    1  UNL1        0.0000
     28 C          64.8145   82.5330   11.9483 C.ar    1  UNL1        0.0000
     29 C          64.3310   82.6649   10.5346 C.ar    1  UNL1        0.0000
     30 C          63.3479   83.7393   10.1753 C.ar    1  UNL1        0.0016
     31 C          61.9884   85.5626    8.2076 C.3     1  UNL1        0.4232
     32 F          62.5067   84.9639    6.9335 F       1  UNL1       -0.1657
     33 F          63.3395   86.1554    8.4787 F       1  UNL1       -0.1657
     34 F          60.6374   84.9699    7.9364 F       1  UNL1       -0.1657
@<TRIPOS>UNITY_ATOM_ATTR
17 1
charge -1
@<TRIPOS>BOND
     1    17    18   ar
     2    18    19   ar
     3    18    13    1
     4    13    14    1
     5    14    15    1
     6    15    12    1
     7    12     6    1
     8     6     7   ar
     9     7     8   ar
    10     8     9   ar
    11     9     1    1
    12     1     2   ar
    13     2     3   ar
    14     3     4   ar
    15     4    20    1
    16    20    21   ar
    17    21    22   ar
    18    22    23   ar
    19    23    25    1
    20    25    26   ar
    21    26    27   ar
    22    27    28   ar
    23    28    29   ar
    24    29    30   ar
    25    23    24   ar
    26    24    31    1
    27    31    32    1
    28    31    33    1
    29    31    34    1
    30     4     5   ar
    31     9    10   ar
    32    10    11   ar
    33    15    16    1
    34    16    13    1
    35    11     6   ar
    36     5     1   ar
    37    24    20   ar
    38    30    25   ar
@<TRIPOS>MOLECULE
*****
 34 38 0 0 0
SMALL
GASTEIGER

@<TRIPOS>ATOM
      1 C          59.4210   89.5707    6.5220 C.ar    1  UNL1        0.2037
      2 N          58.1662   88.7783    6.7397 N.ar    1  UNL1       -0.0555
      3 O          58.3997   87.8480    7.8930 O.2     1  UNL1       -0.3291
      4 C          59.7989   88.0655    8.3880 C.ar    1  UNL1        0.2973
      5 N          60.4301   89.1302    7.5406 N.ar    1  UNL1       -0.1843
      6 C          60.0481   92.7171    3.3665 C.ar    1  UNL1       -0.0061
      7 C          58.6848   92.5071    3.9557 C.ar    1  UNL1       -0.0028
      8 C          58.4758   91.4583    5.0075 C.ar    1  UNL1        0.0029
      9 C          59.6301   90.6195    5.4701 C.ar    1  UNL1        0.0391
     10 C          60.9935   90.8296    4.8810 C.ar    1  UNL1        0.0029
     11 C          61.2025   91.8784    3.8292 C.ar    1  UNL1       -0.0028
     12 C          60.2572   93.7660    2.3147 C.3     1  UNL1        0.0992
     13 C          59.0557   93.2141   -1.0566 C.3     1  UNL1        0.0684
     14 C          58.9763   94.3447   -0.0740 C.3     1  UNL1        0.0793
     15 N          59.7595   93.5374    0.9183 N.3     1  UNL1       -0.2682
     16 C          59.8390   92.4068   -0.0643 C.3     1  UNL1        0.0793
     17 O          57.2860   92.2240   -2.6807 O.co2   1  UNL1       -0.5491
     18 C          58.5581   92.9855   -2.4531 C.2     1  UNL1        0.0527
     19 O          59.3326   93.5184   -3.6220 O.co2   1  UNL1       -0.5491
     20 C          60.4522   87.3448    9.5299 C.ar    1  UNL1        0.2363
     21 O          60.2487   87.6347   10.9874 O.2     1  UNL1       -0.3486
     22 N          61.0944   86.6767   11.7730 N.ar    1  UNL1       -0.0768
     23 C          61.8205   85.7948   10.8009 C.ar    1  UNL1        0.1270
     24 C          61.4236   86.2077    9.4146 C.ar    1  UNL1        0.1340
     25 C          62.7758   84.6934   11.1534 C.ar    1  UNL1        0.0209
     26 C          63.1621   84.4652   12.5848 C.ar    1  UNL1        0.0016
     27 C          64.1175   83.3638   12.9373 C.ar    1  UNL1        0.0000
     28 C          64.6865   82.4907   11.8585 C.ar    1  UNL1        0.0000
     29 C          64.3002   82.7189   10.4272 C.ar    1  UNL1        0.0000
     30 C          63.3449   83.8203   10.0746 C.ar    1  UNL1        0.0016
     31 C          61.9124   85.5917    8.1373 C.3     1  UNL1        0.4232
     32 F          62.4011   84.9756    6.8599 F       1  UNL1       -0.1657
     33 F          63.2819   86.1476    8.3932 F       1  UNL1       -0.1657
     34 F          60.5429   85.0358    7.8814 F       1  UNL1       -0.1657
@<TRIPOS>UNITY_ATOM_ATTR
17 1
charge -1
@<TRIPOS>BOND
     1    17    18   ar
     2    18    19   ar
     3    18    13    1
     4    13    14    1
     5    14    15    1
     6    15    12    1
     7    12     6    1
     8     6     7   ar
     9     7     8   ar
    10     8     9   ar
    11     9     1    1
    12     1     2   ar
    13     2     3   ar
    14     3     4   ar
    15     4    20    1
    16    20    21   ar
    17    21    22   ar
    18    22    23   ar
    19    23    25    1
    20    25    26   ar
    21    26    27   ar
    22    27    28   ar
    23    28    29   ar
    24    29    30   ar
    25    23    24   ar
    26    24    31    1
    27    31    32    1
    28    31    33    1
    29    31    34    1
    30     4     5   ar
    31     9    10   ar
    32    10    11   ar
    33    15    16    1
    34    16    13    1
    35    11     6   ar
    36     5     1   ar
    37    24    20   ar
    38    30    25   ar
@<TRIPOS>MOLECULE
*****
 34 38 0 0 0
SMALL
GASTEIGER

@<TRIPOS>ATOM
      1 C          64.1152   88.2080   14.5397 C.ar    1  UNL1        0.2037
      2 N          63.3589   88.9737   15.5846 N.ar    1  UNL1       -0.0555
      3 O          63.7544   90.4168   15.4789 O.2     1  UNL1       -0.3291
      4 C          64.7551   90.5429   14.3686 C.ar    1  UNL1        0.2973
      5 N          64.9780   89.1779   13.7881 N.ar    1  UNL1       -0.1843
      6 C          63.8430   83.7791   13.7911 C.ar    1  UNL1       -0.0061
      7 C          63.2288   84.7430   12.8197 C.ar    1  UNL1       -0.0028
      8 C          63.3195   86.2193   13.0693 C.ar    1  UNL1        0.0029
      9 C          64.0245   86.7317   14.2902 C.ar    1  UNL1        0.0391
     10 C          64.6387   85.7677   15.2615 C.ar    1  UNL1        0.0029
     11 C          64.5479   84.2915   15.0120 C.ar    1  UNL1       -0.0028
     12 C          63.7523   82.3027   13.5416 C.3     1  UNL1        0.0992
     13 C          60.6349   80.5556   14.1271 C.3     1  UNL1        0.0684
     14 C          62.0658   80.1417   13.9506 C.3     1  UNL1        0.0793
     15 N          62.4610   81.5791   13.7841 N.3     1  UNL1       -0.2682
     16 C          61.0301   81.9930   13.9606 C.3     1  UNL1        0.0793
     17 O          58.1399   80.5865   14.8511 O.co2   1  UNL1       -0.5491
     18 C          59.3435   79.8319   14.3697 C.2     1  UNL1        0.0527
     19 O          59.2559   78.3537   14.1308 O.co2   1  UNL1       -0.5491
     20 C          65.4166   91.8115   13.9178 C.ar    1  UNL1        0.2363
     21 O          66.2578   92.7173   14.7675 O.2     1  UNL1       -0.3486
     22 N          66.7142   93.8625   13.9131 N.ar    1  UNL1       -0.0768
     23 C          66.1551   93.6646   12.5353 C.ar    1  UNL1        0.1270
     24 C          65.3532   92.3970   12.5383 C.ar    1  UNL1        0.1340
     25 C          66.3617   94.5745   11.3609 C.ar    1  UNL1        0.0209
     26 C          67.1761   94.1130   10.1888 C.ar    1  UNL1        0.0016
     27 C          67.3827   95.0230    9.0143 C.ar    1  UNL1        0.0000
     28 C          66.7750   96.3943    9.0120 C.ar    1  UNL1        0.0000
     29 C          65.9605   96.8557   10.1841 C.ar    1  UNL1        0.0000
     30 C          65.7539   95.9458   11.3585 C.ar    1  UNL1        0.0016
     31 C          64.6170   91.8167   11.3673 C.3     1  UNL1        0.4232
     32 F          63.8808   91.2364   10.1961 F       1  UNL1       -0.1657
     33 F          63.3198   91.9764   12.1035 F       1  UNL1       -0.1657
     34 F          65.9141   91.6569   10.6310 F       1  UNL1       -0.1657
@<TRIPOS>UNITY_ATOM_ATTR
17 1
charge -1
@<TRIPOS>BOND
     1    17    18   ar
     2    18    19   ar
     3    18    13    1
     4    13    14    1
     5    14    15    1
     6    15    12    1
     7    12     6    1
     8     6     7   ar
     9     7     8   ar
    10     8     9   ar
    11     9     1    1
    12     1     2   ar
    13     2     3   ar
    14     3     4   ar
    15     4    20    1
    16    20    21   ar
    17    21    22   ar
    18    22    23   ar
    19    23    25    1
    20    25    26   ar
    21    26    27   ar
    22    27    28   ar
    23    28    29   ar
    24    29    30   ar
    25    23    24   ar
    26    24    31    1
    27    31    32    1
    28    31    33    1
    29    31    34    1
    30     4     5   ar
    31     9    10   ar
    32    10    11   ar
    33    15    16    1
    34    16    13    1
    35    11     6   ar
    36     5     1   ar
    37    24    20   ar
    38    30    25   ar
@<TRIPOS>MOLECULE
*****
 34 38 0 0 0
SMALL
GASTEIGER

@<TRIPOS>ATOM
      1 C          59.4944   89.3312    6.7050 C.ar    1  UNL1        0.2037
      2 N          58.2650   88.5581    7.0804 N.ar    1  UNL1       -0.0555
      3 O          58.6355   87.6002    8.1736 O.2     1  UNL1       -0.3291
      4 C          60.0940   87.7813    8.4739 C.ar    1  UNL1        0.2973
      5 N          60.6248   88.8511    7.5662 N.ar    1  UNL1       -0.1843
      6 C          59.7470   92.5292    3.5493 C.ar    1  UNL1       -0.0061
      7 C          58.4166   92.1530    4.1310 C.ar    1  UNL1       -0.0028
      8 C          58.3324   91.0870    5.1829 C.ar    1  UNL1        0.0029
      9 C          59.5787   90.3973    5.6531 C.ar    1  UNL1        0.0391
     10 C          60.9091   90.7735    5.0714 C.ar    1  UNL1        0.0029
     11 C          60.9932   91.8395    4.0195 C.ar    1  UNL1       -0.0028
     12 C          59.8312   93.5953    2.4974 C.3     1  UNL1        0.0992
     13 C          62.8030   93.8868    0.4487 C.3     1  UNL1        0.0684
     14 C          62.1011   94.7760    1.4319 C.3     1  UNL1        0.0793
     15 N          61.0621   93.7160    1.6488 N.3     1  UNL1       -0.2682
     16 C          61.7640   92.8269    0.6656 C.3     1  UNL1        0.0793
     17 O          63.9624   93.7202   -1.8704 O.co2   1  UNL1       -0.5491
     18 C          64.0340   94.0075   -0.3999 C.2     1  UNL1        0.0527
     19 O          65.3366   94.4155    0.2220 O.co2   1  UNL1       -0.5491
     20 C          60.8832   87.0253    9.5014 C.ar    1  UNL1        0.2363
     21 O          61.0679   85.5376    9.5521 O.2     1  UNL1       -0.3486
     22 N          61.9250   85.2171   10.7406 N.ar    1  UNL1       -0.0768
     23 C          62.2700   86.5068   11.4245 C.ar    1  UNL1        0.1270
     24 C          61.6261   87.6242   10.6586 C.ar    1  UNL1        0.1340
     25 C          63.1111   86.6531   12.6577 C.ar    1  UNL1        0.0209
     26 C          63.5210   85.4371   13.4346 C.ar    1  UNL1        0.0016
     27 C          64.3623   85.5835   14.6679 C.ar    1  UNL1        0.0000
     28 C          64.7936   86.9457   15.1243 C.ar    1  UNL1        0.0000
     29 C          64.3837   88.1616   14.3474 C.ar    1  UNL1        0.0000
     30 C          63.5425   88.0153   13.1142 C.ar    1  UNL1        0.0016
     31 C          61.7104   89.0844   10.9916 C.3     1  UNL1        0.4232
     32 F          61.7947   90.5446   11.3245 F       1  UNL1       -0.1657
     33 F          62.8890   89.2255   10.0744 F       1  UNL1       -0.1657
     34 F          60.5319   88.9433   11.9087 F       1  UNL1       -0.1657
@<TRIPOS>UNITY_ATOM_ATTR
17 1
charge -1
@<TRIPOS>BOND
     1    17    18   ar
     2    18    19   ar
     3    18    13    1
     4    13    14    1
     5    14    15    1
     6    15    12    1
     7    12     6    1
     8     6     7   ar
     9     7     8   ar
    10     8     9   ar
    11     9     1    1
    12     1     2   ar
    13     2     3   ar
    14     3     4   ar
    15     4    20    1
    16    20    21   ar
    17    21    22   ar
    18    22    23   ar
    19    23    25    1
    20    25    26   ar
    21    26    27   ar
    22    27    28   ar
    23    28    29   ar
    24    29    30   ar
    25    23    24   ar
    26    24    31    1
    27    31    32    1
    28    31    33    1
    29    31    34    1
    30     4     5   ar
    31     9    10   ar
    32    10    11   ar
    33    15    16    1
    34    16    13    1
    35    11     6   ar
    36     5     1   ar
    37    24    20   ar
    38    30    25   ar
@<TRIPOS>MOLECULE
*****
 34 38 0 0 0
SMALL
GASTEIGER

@<TRIPOS>ATOM
      1 C          60.5318   93.1296    2.9131 C.ar    1  UNL1        0.2037
      2 N          59.8136   94.3835    2.5106 N.ar    1  UNL1       -0.0555
      3 O          60.6484   95.0856    1.4810 O.2     1  UNL1       -0.3291
      4 C          61.8825   94.2656    1.2471 C.ar    1  UNL1        0.2973
      5 N          61.8104   93.0567    2.1322 N.ar    1  UNL1       -0.1843
      6 C          59.1014   90.1157    5.9331 C.ar    1  UNL1       -0.0061
      7 C          60.5621   90.2155    5.6070 C.ar    1  UNL1       -0.0028
      8 C          61.0389   91.2201    4.6004 C.ar    1  UNL1        0.0029
      9 C          60.0549   92.1249    3.9198 C.ar    1  UNL1        0.0391
     10 C          58.5942   92.0251    4.2459 C.ar    1  UNL1        0.0029
     11 C          58.1175   91.0205    5.2525 C.ar    1  UNL1       -0.0028
     12 C          58.6246   89.1110    6.9398 C.3     1  UNL1        0.0992
     13 C          60.7727   88.1436    9.6899 C.3     1  UNL1        0.0684
     14 C          60.1615   87.4310    8.5200 C.3     1  UNL1        0.0793
     15 N          59.5144   88.7103    8.0789 N.3     1  UNL1       -0.2682
     16 C          60.1256   89.4229    9.2487 C.3     1  UNL1        0.0793
     17 O          62.7871   88.6401   11.2539 O.co2   1  UNL1       -0.5491
     18 C          61.6626   87.7429   10.8291 C.2     1  UNL1        0.0527
     19 O          61.4278   86.4451   11.5435 O.co2   1  UNL1       -0.5491
     20 C          62.9936   94.5964    0.2952 C.ar    1  UNL1        0.2363
     21 O          64.3810   95.0230    0.6736 O.2     1  UNL1       -0.3486
     22 N          65.1573   95.2489   -0.5899 N.ar    1  UNL1       -0.0768
     23 C          64.2496   94.9619   -1.7491 C.ar    1  UNL1        0.1270
     24 C          62.9125   94.5586   -1.2020 C.ar    1  UNL1        0.1340
     25 C          64.6151   95.0608   -3.2005 C.ar    1  UNL1        0.0209
     26 C          64.5372   93.8466   -4.0779 C.ar    1  UNL1        0.0016
     27 C          64.9027   93.9455   -5.5294 C.ar    1  UNL1        0.0000
     28 C          65.3460   95.2585   -6.1033 C.ar    1  UNL1        0.0000
     29 C          65.4238   96.4727   -5.2260 C.ar    1  UNL1        0.0000
     30 C          65.0584   96.3738   -3.7745 C.ar    1  UNL1        0.0016
     31 C          61.7059   94.1834   -2.0104 C.3     1  UNL1        0.4232
     32 F          60.4993   93.8082   -2.8188 F       1  UNL1       -0.1657
     33 F          62.1202   92.7426   -1.9600 F       1  UNL1       -0.1657
     34 F          61.2917   95.6242   -2.0608 F       1  UNL1       -0.1657
@<TRIPOS>UNITY_ATOM_ATTR
17 1
charge -1
@<TRIPOS>BOND
     1    17    18   ar
     2    18    19   ar
     3    18    13    1
     4    13    14    1
     5    14    15    1
     6    15    12    1
     7    12     6    1
     8     6     7   ar
     9     7     8   ar
    10     8     9   ar
    11     9     1    1
    12     1     2   ar
    13     2     3   ar
    14     3     4   ar
    15     4    20    1
    16    20    21   ar
    17    21    22   ar
    18    22    23   ar
    19    23    25    1
    20    25    26   ar
    21    26    27   ar
    22    27    28   ar
    23    28    29   ar
    24    29    30   ar
    25    23    24   ar
    26    24    31    1
    27    31    32    1
    28    31    33    1
    29    31    34    1
    30     4     5   ar
    31     9    10   ar
    32    10    11   ar
    33    15    16    1
    34    16    13    1
    35    11     6   ar
    36     5     1   ar
    37    24    20   ar
    38    30    25   ar
@<TRIPOS>MOLECULE
*****
 34 38 0 0 0
SMALL
GASTEIGER

@<TRIPOS>ATOM
      1 C          63.9003   87.8332   13.9996 C.ar    1  UNL1        0.2037
      2 N          64.3585   88.7469   15.0975 N.ar    1  UNL1       -0.0555
      3 O          64.6006   90.1021   14.5018 O.2     1  UNL1       -0.3291
      4 C          64.2920   90.0259   13.0358 C.ar    1  UNL1        0.2973
      5 N          63.8592   88.6236   12.7255 N.ar    1  UNL1       -0.1843
      6 C          62.8360   83.4841   14.4499 C.ar    1  UNL1       -0.0061
      7 C          63.1645   84.3051   15.6615 C.ar    1  UNL1       -0.0028
      8 C          63.5192   85.7548   15.5114 C.ar    1  UNL1        0.0029
      9 C          63.5455   86.3834   14.1497 C.ar    1  UNL1        0.0391
     10 C          63.2171   85.5624   12.9381 C.ar    1  UNL1        0.0029
     11 C          62.8623   84.1127   13.0882 C.ar    1  UNL1       -0.0028
     12 C          62.4812   82.0343   14.5999 C.3     1  UNL1        0.0992
     13 C          62.6935   79.8136   11.7474 C.3     1  UNL1        0.0684
     14 C          62.7497   79.6366   13.2358 C.3     1  UNL1        0.0793
     15 N          62.5691   81.1145   13.4184 N.3     1  UNL1       -0.2682
     16 C          62.5129   81.2915   11.9299 C.3     1  UNL1        0.0793
     17 O          62.8679   79.4599    9.1794 O.co2   1  UNL1       -0.5491
     18 C          62.7815   78.8938   10.5657 C.2     1  UNL1        0.0527
     19 O          62.7829   77.4078   10.7705 O.co2   1  UNL1       -0.5491
     20 C          64.3976   91.1540   12.0528 C.ar    1  UNL1        0.2363
     21 O          63.4944   91.3874   10.8782 O.2     1  UNL1       -0.3486
     22 N          63.9636   92.6243   10.1713 N.ar    1  UNL1       -0.0768
     23 C          65.1569   93.1554   10.9089 C.ar    1  UNL1        0.1270
     24 C          65.4251   92.2466   12.0717 C.ar    1  UNL1        0.1340
     25 C          65.9437   94.3801   10.5471 C.ar    1  UNL1        0.0209
     26 C          65.8023   95.6306   11.3635 C.ar    1  UNL1        0.0016
     27 C          66.5891   96.8554   11.0017 C.ar    1  UNL1        0.0000
     28 C          67.5173   96.8296    9.8237 C.ar    1  UNL1        0.0000
     29 C          67.6587   95.5792    9.0074 C.ar    1  UNL1        0.0000
     30 C          66.8719   94.3544    9.3691 C.ar    1  UNL1        0.0016
     31 C          66.5273   92.4031   13.0770 C.3     1  UNL1        0.4232
     32 F          67.6296   92.5596   14.0824 F       1  UNL1       -0.1657
     33 F          67.5214   91.9212   12.0622 F       1  UNL1       -0.1657
     34 F          65.5334   92.8850   14.0918 F       1  UNL1       -0.1657
@<TRIPOS>UNITY_ATOM_ATTR
17 1
charge -1
@<TRIPOS>BOND
     1    17    18   ar
     2    18    19   ar
     3    18    13    1
     4    13    14    1
     5    14    15    1
     6    15    12    1
     7    12     6    1
     8     6     7   ar
     9     7     8   ar
    10     8     9   ar
    11     9     1    1
    12     1     2   ar
    13     2     3   ar
    14     3     4   ar
    15     4    20    1
    16    20    21   ar
    17    21    22   ar
    18    22    23   ar
    19    23    25    1
    20    25    26   ar
    21    26    27   ar
    22    27    28   ar
    23    28    29   ar
    24    29    30   ar
    25    23    24   ar
    26    24    31    1
    27    31    32    1
    28    31    33    1
    29    31    34    1
    30     4     5   ar
    31     9    10   ar
    32    10    11   ar
    33    15    16    1
    34    16    13    1
    35    11     6   ar
    36     5     1   ar
    37    24    20   ar
    38    30    25   ar
@<TRIPOS>MOLECULE
*****
 34 38 0 0 0
SMALL
GASTEIGER

@<TRIPOS>ATOM
      1 C          59.4626   90.1953    6.3284 C.ar    1  UNL1        0.2037
      2 N          58.1423   90.1839    5.6165 N.ar    1  UNL1       -0.0555
      3 O          58.2347   91.1264    4.4532 O.2     1  UNL1       -0.3291
      4 C          59.6122   91.7204    4.4463 C.ar    1  UNL1        0.2973
      5 N          60.3710   91.1449    5.6051 N.ar    1  UNL1       -0.1843
      6 C          60.5136   87.8012    9.9908 C.ar    1  UNL1       -0.0061
      7 C          60.9052   89.2464    9.9017 C.ar    1  UNL1       -0.0028
      8 C          60.5549   90.0444    8.6809 C.ar    1  UNL1        0.0029
      9 C          59.8129   89.3972    7.5492 C.ar    1  UNL1        0.0391
     10 C          59.4213   87.9520    7.6383 C.ar    1  UNL1        0.0029
     11 C          59.7716   87.1540    8.8591 C.ar    1  UNL1       -0.0028
     12 C          60.8640   87.0031   11.2116 C.3     1  UNL1        0.0992
     13 C          62.8298   83.9784   10.8949 C.3     1  UNL1        0.0684
     14 C          62.2357   84.7421   12.0411 C.3     1  UNL1        0.0793
     15 N          61.6782   85.7502   11.0805 N.3     1  UNL1       -0.2682
     16 C          62.2723   84.9865    9.9343 C.3     1  UNL1        0.0793
     17 O          63.1016   81.4219   11.2700 O.co2   1  UNL1       -0.5491
     18 C          63.6441   82.7254   10.7637 C.2     1  UNL1        0.0527
     19 O          65.0009   82.7762   10.1262 O.co2   1  UNL1       -0.5491
     20 C          60.1383   92.7152    3.4545 C.ar    1  UNL1        0.2363
     21 O          59.4846   94.0102    3.0731 O.2     1  UNL1       -0.3486
     22 N          60.3528   94.6849    2.0529 N.ar    1  UNL1       -0.0768
     23 C          61.5432   93.8069    1.8037 C.ar    1  UNL1        0.1270
     24 C          61.4106   92.5895    2.6700 C.ar    1  UNL1        0.1340
     25 C          62.6685   94.0956    0.8550 C.ar    1  UNL1        0.0209
     26 C          63.9129   94.7710    1.3507 C.ar    1  UNL1        0.0016
     27 C          65.0382   95.0597    0.4019 C.ar    1  UNL1        0.0000
     28 C          64.9192   94.6732   -1.0425 C.ar    1  UNL1        0.0000
     29 C          63.6750   93.9979   -1.5382 C.ar    1  UNL1        0.0000
     30 C          62.5496   93.7091   -0.5895 C.ar    1  UNL1        0.0016
     31 C          62.3801   91.4471    2.7395 C.3     1  UNL1        0.4232
     32 F          63.3497   90.3046    2.8090 F       1  UNL1       -0.1657
     33 F          62.8125   91.8970    4.1036 F       1  UNL1       -0.1657
     34 F          61.9478   90.9972    1.3755 F       1  UNL1       -0.1657
@<TRIPOS>UNITY_ATOM_ATTR
17 1
charge -1
@<TRIPOS>BOND
     1    17    18   ar
     2    18    19   ar
     3    18    13    1
     4    13    14    1
     5    14    15    1
     6    15    12    1
     7    12     6    1
     8     6     7   ar
     9     7     8   ar
    10     8     9   ar
    11     9     1    1
    12     1     2   ar
    13     2     3   ar
    14     3     4   ar
    15     4    20    1
    16    20    21   ar
    17    21    22   ar
    18    22    23   ar
    19    23    25    1
    20    25    26   ar
    21    26    27   ar
    22    27    28   ar
    23    28    29   ar
    24    29    30   ar
    25    23    24   ar
    26    24    31    1
    27    31    32    1
    28    31    33    1
    29    31    34    1
    30     4     5   ar
    31     9    10   ar
    32    10    11   ar
    33    15    16    1
    34    16    13    1
    35    11     6   ar
    36     5     1   ar
    37    24    20   ar
    38    30    25   ar
@<TRIPOS>MOLECULE
*****
 34 38 0 0 0
SMALL
GASTEIGER

@<TRIPOS>ATOM
      1 C          59.5159   89.1505    6.7787 C.ar    1  UNL1        0.2037
      2 N          58.3026   88.3215    7.0799 N.ar    1  UNL1       -0.0555
      3 O          58.6826   87.3015    8.1119 O.2     1  UNL1       -0.3291
      4 C          60.1308   87.5001    8.4486 C.ar    1  UNL1        0.2973
      5 N          60.6458   88.6428    7.6247 N.ar    1  UNL1       -0.1843
      6 C          59.7288   92.5615    3.8514 C.ar    1  UNL1       -0.0061
      7 C          60.9759   91.8188    4.2295 C.ar    1  UNL1       -0.0028
      8 C          60.9049   90.6818    5.2053 C.ar    1  UNL1        0.0029
      9 C          59.5868   90.2876    5.8029 C.ar    1  UNL1        0.0391
     10 C          58.3397   91.0303    5.4248 C.ar    1  UNL1        0.0029
     11 C          58.4107   92.1672    4.4490 C.ar    1  UNL1       -0.0028
     12 C          59.7997   93.6986    2.8755 C.3     1  UNL1        0.0992
     13 C          59.3599   93.0765   -0.6647 C.3     1  UNL1        0.0684
     14 C          58.4559   93.4830    0.4611 C.3     1  UNL1        0.0793
     15 N          59.6175   93.4409    1.4091 N.3     1  UNL1       -0.2682
     16 C          60.5216   93.0344    0.2833 C.3     1  UNL1        0.0793
     17 O          57.9557   92.0996   -2.6202 O.co2   1  UNL1       -0.5491
     18 C          59.1778   92.8188   -2.1312 C.2     1  UNL1        0.0527
     19 O          60.2178   93.2804   -3.1086 O.co2   1  UNL1       -0.5491
     20 C          60.9246   86.6969    9.4360 C.ar    1  UNL1        0.2363
     21 O          61.2282   85.2312    9.3391 O.2     1  UNL1       -0.3486
     22 N          62.0454   84.8469   10.5367 N.ar    1  UNL1       -0.0768
     23 C          62.2469   86.0752   11.3739 C.ar    1  UNL1        0.1270
     24 C          61.5542   87.2185   10.6935 C.ar    1  UNL1        0.1340
     25 C          63.0075   86.1473   12.6646 C.ar    1  UNL1        0.0209
     26 C          63.5893   87.4527   13.1204 C.ar    1  UNL1        0.0016
     27 C          64.3500   87.5249   14.4112 C.ar    1  UNL1        0.0000
     28 C          64.5289   86.2917   15.2462 C.ar    1  UNL1        0.0000
     29 C          63.9471   84.9864   14.7905 C.ar    1  UNL1        0.0000
     30 C          63.1865   84.9142   13.4997 C.ar    1  UNL1        0.0016
     31 C          61.5006   88.6348   11.1846 C.3     1  UNL1        0.4232
     32 F          61.4469   90.0512   11.6756 F       1  UNL1       -0.1657
     33 F          60.1920   88.3509   11.8608 F       1  UNL1       -0.1657
     34 F          62.8090   88.9188   10.5084 F       1  UNL1       -0.1657
@<TRIPOS>UNITY_ATOM_ATTR
17 1
charge -1
@<TRIPOS>BOND
     1    17    18   ar
     2    18    19   ar
     3    18    13    1
     4    13    14    1
     5    14    15    1
     6    15    12    1
     7    12     6    1
     8     6     7   ar
     9     7     8   ar
    10     8     9   ar
    11     9     1    1
    12     1     2   ar
    13     2     3   ar
    14     3     4   ar
    15     4    20    1
    16    20    21   ar
    17    21    22   ar
    18    22    23   ar
    19    23    25    1
    20    25    26   ar
    21    26    27   ar
    22    27    28   ar
    23    28    29   ar
    24    29    30   ar
    25    23    24   ar
    26    24    31    1
    27    31    32    1
    28    31    33    1
    29    31    34    1
    30     4     5   ar
    31     9    10   ar
    32    10    11   ar
    33    15    16    1
    34    16    13    1
    35    11     6   ar
    36     5     1   ar
    37    24    20   ar
    38    30    25   ar
