@<TRIPOS>MOLECULE
*****
 25 27 0 0 0
SMALL
GASTEIGER

@<TRIPOS>ATOM
      1 C          61.2950   87.6884   11.1817 C.ar    1  UNL1        0.0549
      2 C          59.9480   88.2758   11.4824 C.ar    1  UNL1        0.0354
      3 C          59.7385   89.7581   11.3894 C.ar    1  UNL1        0.1016
      4 N          60.8760   90.6531   10.9956 N.ar    1  UNL1       -0.2289
      5 C          62.2230   90.0656   10.6948 C.ar    1  UNL1        0.1354
      6 C          62.4325   88.5833   10.7879 C.ar    1  UNL1        0.0491
      7 O          63.4156   86.5839   12.9936 O.2     1  UNL1       -0.2698
      8 C          62.5648   85.6537   12.1807 C.2     1  UNL1        0.2511
      9 N          61.5045   86.2059   11.2747 N.am    1  UNL1       -0.2802
     10 H          60.9461   85.5954   10.7411 H       1  UNL1        0.1552
     11 C          62.7743   84.1713   12.2737 C.ar    1  UNL1        0.0748
     12 C          63.2490   83.4043   11.0753 C.ar    1  UNL1        0.0628
     13 CL         63.5142   84.1196    9.7838 Cl      1  UNL1       -0.0821
     14 C          63.4585   81.9219   11.1684 C.ar    1  UNL1        0.0116
     15 C          63.1933   81.2066   12.4599 C.ar    1  UNL1        0.0017
     16 C          62.7186   81.9736   13.6583 C.ar    1  UNL1        0.0116
     17 C          62.5091   83.4560   13.5652 C.ar    1  UNL1        0.0628
     18 CL         62.0344   84.2231   14.7637 Cl      1  UNL1       -0.0821
     19 N          63.3606   90.9606   10.3010 N.am    1  UNL1       -0.2693
     20 C          64.1412   91.6891   11.3545 C.2     1  UNL1        0.2267
     21 O          63.7842   91.5226   12.8020 O.2     1  UNL1       -0.2748
     22 H          63.5948   91.0698    9.3511 H       1  UNL1        0.1563
     23 C          65.2787   92.5840   10.9607 C.3     1  UNL1        0.0769
     24 C          65.8278   93.9600   10.7260 C.3     1  UNL1        0.0096
     25 C          66.6998   92.7581   10.5134 C.3     1  UNL1        0.0096
@<TRIPOS>BOND
     1     7     8    2
     2     8     9   am
     3     9     1    1
     4     1     2   ar
     5     2     3   ar
     6     3     4   ar
     7     4     5   ar
     8     5    19    1
     9    19    20   am
    10    20    21    2
    11    20    23    1
    12    23    24    1
    13    24    25    1
    14     5     6   ar
    15     8    11    1
    16    11    12   ar
    17    12    13    1
    18    12    14   ar
    19    14    15   ar
    20    15    16   ar
    21    16    17   ar
    22    17    18    1
    23     6     1   ar
    24    17    11   ar
    25    25    23    1
    26     9    10    1
    27    19    22    1
@<TRIPOS>MOLECULE
*****
 25 27 0 0 0
SMALL
GASTEIGER

@<TRIPOS>ATOM
      1 C          61.2919   87.6925   11.1826 C.ar    1  UNL1        0.0549
      2 C          59.9426   88.2753   11.4820 C.ar    1  UNL1        0.0354
      3 C          59.7287   89.7571   11.3909 C.ar    1  UNL1        0.1016
      4 N          60.8641   90.6562   11.0005 N.ar    1  UNL1       -0.2289
      5 C          62.2134   90.0734   10.7011 C.ar    1  UNL1        0.1354
      6 C          62.4273   88.5916   10.7921 C.ar    1  UNL1        0.0491
      7 O          63.3949   86.5904   13.0164 O.2     1  UNL1       -0.2698
      8 C          62.5573   85.6595   12.1905 C.2     1  UNL1        0.2511
      9 N          61.5058   86.2106   11.2736 N.am    1  UNL1       -0.2802
     10 H          60.9561   85.5997   10.7316 H       1  UNL1        0.1552
     11 C          62.7713   84.1776   12.2815 C.ar    1  UNL1        0.0748
     12 C          62.5179   83.4613   13.5749 C.ar    1  UNL1        0.0628
     13 CL         62.0506   84.2269   14.7772 Cl      1  UNL1       -0.0821
     14 C          62.7319   81.9795   13.6658 C.ar    1  UNL1        0.0116
     15 C          63.1992   81.2139   12.4635 C.ar    1  UNL1        0.0017
     16 C          63.4525   81.9302   11.1702 C.ar    1  UNL1        0.0116
     17 C          63.2386   83.4121   11.0792 C.ar    1  UNL1        0.0628
     18 CL         63.4919   84.1285    9.7859 Cl      1  UNL1       -0.0821
     19 N          63.3489   90.9725   10.3106 N.am    1  UNL1       -0.2693
     20 C          64.1343   91.6909   11.3675 C.2     1  UNL1        0.2267
     21 O          63.7843   91.5102   12.8149 O.2     1  UNL1       -0.2748
     22 H          63.5786   91.0911    9.3607 H       1  UNL1        0.1563
     23 C          65.2697   92.5900   10.9771 C.3     1  UNL1        0.0769
     24 C          65.8230   93.9688   10.7705 C.3     1  UNL1        0.0096
     25 C          66.6830   92.7684   10.5074 C.3     1  UNL1        0.0096
@<TRIPOS>BOND
     1     7     8    2
     2     8     9   am
     3     9     1    1
     4     1     2   ar
     5     2     3   ar
     6     3     4   ar
     7     4     5   ar
     8     5    19    1
     9    19    20   am
    10    20    21    2
    11    20    23    1
    12    23    24    1
    13    24    25    1
    14     5     6   ar
    15     8    11    1
    16    11    12   ar
    17    12    13    1
    18    12    14   ar
    19    14    15   ar
    20    15    16   ar
    21    16    17   ar
    22    17    18    1
    23     6     1   ar
    24    17    11   ar
    25    25    23    1
    26     9    10    1
    27    19    22    1
@<TRIPOS>MOLECULE
*****
 25 27 0 0 0
SMALL
GASTEIGER

@<TRIPOS>ATOM
      1 C          63.8787   87.6162   15.4181 C.ar    1  UNL1        0.0549
      2 C          63.2471   87.9671   16.7326 C.ar    1  UNL1        0.0354
      3 C          62.6090   86.8967   17.5674 C.ar    1  UNL1        0.1016
      4 N          62.6025   85.4754   17.0878 N.ar    1  UNL1       -0.2289
      5 C          63.2341   85.1246   15.7733 C.ar    1  UNL1        0.1354
      6 C          63.8722   86.1950   14.9384 C.ar    1  UNL1        0.0491
      7 O          62.2079   89.8437   14.3016 O.2     1  UNL1       -0.2698
      8 C          63.6815   89.8003   14.0249 C.2     1  UNL1        0.2511
      9 N          64.5169   88.6866   14.5832 N.am    1  UNL1       -0.2802
     10 H          65.4841   88.6582   14.4016 H       1  UNL1        0.1552
     11 C          64.3197   90.8708   13.1900 C.ar    1  UNL1        0.0748
     12 C          65.3317   91.7944   13.8003 C.ar    1  UNL1        0.0628
     13 CL         65.7057   91.6477   15.2455 Cl      1  UNL1       -0.0821
     14 C          65.9699   92.8648   12.9654 C.ar    1  UNL1        0.0116
     15 C          65.5959   93.0114   11.5202 C.ar    1  UNL1        0.0017
     16 C          64.5839   92.0878   10.9099 C.ar    1  UNL1        0.0116
     17 C          63.9457   91.0174   11.7448 C.ar    1  UNL1        0.0628
     18 CL         62.9336   90.0937   11.1345 Cl      1  UNL1       -0.0821
     19 N          63.2276   83.7034   15.2936 N.am    1  UNL1       -0.2693
     20 C          62.7775   83.3846   13.8987 C.2     1  UNL1        0.2267
     21 O          62.3340   84.4871   12.9834 O.2     1  UNL1       -0.2748
     22 H          63.5187   82.9798   15.8944 H       1  UNL1        0.1563
     23 C          62.7710   81.9634   13.4191 C.3     1  UNL1        0.0769
     24 C          62.8438   80.9708   12.2969 C.3     1  UNL1        0.0096
     25 C          62.6870   80.4944   13.7106 C.3     1  UNL1        0.0096
@<TRIPOS>BOND
     1     7     8    2
     2     8     9   am
     3     9     1    1
     4     1     2   ar
     5     2     3   ar
     6     3     4   ar
     7     4     5   ar
     8     5    19    1
     9    19    20   am
    10    20    21    2
    11    20    23    1
    12    23    24    1
    13    24    25    1
    14     5     6   ar
    15     8    11    1
    16    11    12   ar
    17    12    13    1
    18    12    14   ar
    19    14    15   ar
    20    15    16   ar
    21    16    17   ar
    22    17    18    1
    23     6     1   ar
    24    17    11   ar
    25    25    23    1
    26     9    10    1
    27    19    22    1
@<TRIPOS>MOLECULE
*****
 25 27 0 0 0
SMALL
GASTEIGER

@<TRIPOS>ATOM
      1 C          63.9112   87.7148   15.4489 C.ar    1  UNL1        0.0549
      2 C          63.2629   88.0648   16.7554 C.ar    1  UNL1        0.0354
      3 C          62.6158   86.9935   17.5822 C.ar    1  UNL1        0.1016
      4 N          62.6169   85.5723   17.1024 N.ar    1  UNL1       -0.2289
      5 C          63.2652   85.2224   15.7958 C.ar    1  UNL1        0.1354
      6 C          63.9124   86.2936   14.9691 C.ar    1  UNL1        0.0491
      7 O          62.2415   89.9028   14.2552 O.2     1  UNL1       -0.2698
      8 C          63.7236   89.8800   14.0252 C.2     1  UNL1        0.2511
      9 N          64.5584   88.7861   14.6220 N.am    1  UNL1       -0.2802
     10 H          65.5312   88.7711   14.4711 H       1  UNL1        0.1552
     11 C          64.3708   90.9513   13.1984 C.ar    1  UNL1        0.0748
     12 C          64.0024   91.1083   11.7528 C.ar    1  UNL1        0.0628
     13 CL         62.9868   90.1941   11.1341 Cl      1  UNL1       -0.0821
     14 C          64.6496   92.1795   10.9261 C.ar    1  UNL1        0.0116
     15 C          65.6651   93.0937   11.5449 C.ar    1  UNL1        0.0017
     16 C          66.0335   92.9367   12.9904 C.ar    1  UNL1        0.0116
     17 C          65.3863   91.8655   13.8171 C.ar    1  UNL1        0.0628
     18 CL         65.7547   91.7084   15.2627 Cl      1  UNL1       -0.0821
     19 N          63.2664   83.8012   15.3160 N.am    1  UNL1       -0.2693
     20 C          62.7318   83.4688   13.9545 C.2     1  UNL1        0.2267
     21 O          62.1959   84.5577   13.0728 O.2     1  UNL1       -0.2748
     22 H          63.6180   83.0866   15.8947 H       1  UNL1        0.1563
     23 C          62.7329   82.0476   13.4747 C.3     1  UNL1        0.0769
     24 C          62.8206   81.0552   12.3534 C.3     1  UNL1        0.0096
     25 C          62.6472   80.5785   13.7650 C.3     1  UNL1        0.0096
@<TRIPOS>BOND
     1     7     8    2
     2     8     9   am
     3     9     1    1
     4     1     2   ar
     5     2     3   ar
     6     3     4   ar
     7     4     5   ar
     8     5    19    1
     9    19    20   am
    10    20    21    2
    11    20    23    1
    12    23    24    1
    13    24    25    1
    14     5     6   ar
    15     8    11    1
    16    11    12   ar
    17    12    13    1
    18    12    14   ar
    19    14    15   ar
    20    15    16   ar
    21    16    17   ar
    22    17    18    1
    23     6     1   ar
    24    17    11   ar
    25    25    23    1
    26     9    10    1
    27    19    22    1
@<TRIPOS>MOLECULE
*****
 25 27 0 0 0
SMALL
GASTEIGER

@<TRIPOS>ATOM
      1 C          63.5402   85.5355   15.1594 C.ar    1  UNL1        0.0549
      2 C          62.8876   85.6456   16.5055 C.ar    1  UNL1        0.0354
      3 C          62.8303   86.9712   17.2050 C.ar    1  UNL1        0.1016
      4 N          63.4256   88.1868   16.5584 N.ar    1  UNL1       -0.2289
      5 C          64.0782   88.0767   15.2123 C.ar    1  UNL1        0.1354
      6 C          64.1355   86.7511   14.5128 C.ar    1  UNL1        0.0491
      7 O          62.0375   85.1262   12.5953 O.2     1  UNL1       -0.2698
      8 C          62.8463   84.0052   13.1779 C.2     1  UNL1        0.2511
      9 N          63.5976   84.2098   14.4599 N.am    1  UNL1       -0.2802
     10 H          64.1284   83.4740   14.8422 H       1  UNL1        0.1552
     11 C          62.9036   82.6795   12.4783 C.ar    1  UNL1        0.0748
     12 C          62.3614   81.4529   13.1501 C.ar    1  UNL1        0.0628
     13 CL         61.7617   81.5519   14.5215 Cl      1  UNL1       -0.0821
     14 C          62.4188   80.1273   12.4505 C.ar    1  UNL1        0.0116
     15 C          63.0184   80.0283   11.0792 C.ar    1  UNL1        0.0017
     16 C          63.5606   81.2549   10.4074 C.ar    1  UNL1        0.0116
     17 C          63.5033   82.5805   11.1069 C.ar    1  UNL1        0.0628
     18 CL         64.0455   83.8072   10.4351 Cl      1  UNL1       -0.0821
     19 N          64.6734   89.2923   14.5658 N.am    1  UNL1       -0.2693
     20 C          63.9495   89.9755   13.4437 C.2     1  UNL1        0.2267
     21 O          62.6301   89.4431   12.9682 O.2     1  UNL1       -0.2748
     22 H          65.5393   89.6417   14.8778 H       1  UNL1        0.1563
     23 C          64.5447   91.1910   12.7971 C.3     1  UNL1        0.0769
     24 C          64.6825   92.0934   11.6069 C.3     1  UNL1        0.0096
     25 C          65.4379   92.3940   12.8675 C.3     1  UNL1        0.0096
@<TRIPOS>BOND
     1     7     8    2
     2     8     9   am
     3     9     1    1
     4     1     2   ar
     5     2     3   ar
     6     3     4   ar
     7     4     5   ar
     8     5    19    1
     9    19    20   am
    10    20    21    2
    11    20    23    1
    12    23    24    1
    13    24    25    1
    14     5     6   ar
    15     8    11    1
    16    11    12   ar
    17    12    13    1
    18    12    14   ar
    19    14    15   ar
    20    15    16   ar
    21    16    17   ar
    22    17    18    1
    23     6     1   ar
    24    17    11   ar
    25    25    23    1
    26     9    10    1
    27    19    22    1
@<TRIPOS>MOLECULE
*****
 25 27 0 0 0
SMALL
GASTEIGER

@<TRIPOS>ATOM
      1 C          63.5434   85.5263   15.1782 C.ar    1  UNL1        0.0549
      2 C          62.8949   85.6373   16.5261 C.ar    1  UNL1        0.0354
      3 C          62.8396   86.9634   17.2249 C.ar    1  UNL1        0.1016
      4 N          63.4329   88.1785   16.5756 N.ar    1  UNL1       -0.2289
      5 C          64.0814   88.0675   15.2277 C.ar    1  UNL1        0.1354
      6 C          64.1366   86.7414   14.5289 C.ar    1  UNL1        0.0491
      7 O          62.0383   85.1172   12.6154 O.2     1  UNL1       -0.2698
      8 C          62.8461   83.9956   13.1980 C.2     1  UNL1        0.2511
      9 N          63.5986   84.2001   14.4793 N.am    1  UNL1       -0.2802
     10 H          64.1288   83.4639   14.8617 H       1  UNL1        0.1552
     11 C          62.9014   82.6694   12.4992 C.ar    1  UNL1        0.0748
     12 C          63.4881   82.5711   11.1222 C.ar    1  UNL1        0.0628
     13 CL         64.0195   83.7989   10.4440 Cl      1  UNL1       -0.0821
     14 C          63.5433   81.2450   10.4235 C.ar    1  UNL1        0.0116
     15 C          63.0118   80.0171   11.1017 C.ar    1  UNL1        0.0017
     16 C          62.4251   80.1154   12.4787 C.ar    1  UNL1        0.0116
     17 C          62.3699   81.4416   13.1774 C.ar    1  UNL1        0.0628
     18 CL         61.7832   81.5399   14.5545 Cl      1  UNL1       -0.0821
     19 N          64.6746   89.2826   14.5784 N.am    1  UNL1       -0.2693
     20 C          63.9474   89.9648   13.4578 C.2     1  UNL1        0.2267
     21 O          62.6268   89.4319   12.9865 O.2     1  UNL1       -0.2748
     22 H          65.5413   89.6324   14.8878 H       1  UNL1        0.1563
     23 C          64.5406   91.1799   12.8086 C.3     1  UNL1        0.0769
     24 C          65.4438   92.3759   12.8710 C.3     1  UNL1        0.0096
     25 C          64.6650   92.0886   11.6217 C.3     1  UNL1        0.0096
@<TRIPOS>BOND
     1     7     8    2
     2     8     9   am
     3     9     1    1
     4     1     2   ar
     5     2     3   ar
     6     3     4   ar
     7     4     5   ar
     8     5    19    1
     9    19    20   am
    10    20    21    2
    11    20    23    1
    12    23    24    1
    13    24    25    1
    14     5     6   ar
    15     8    11    1
    16    11    12   ar
    17    12    13    1
    18    12    14   ar
    19    14    15   ar
    20    15    16   ar
    21    16    17   ar
    22    17    18    1
    23     6     1   ar
    24    17    11   ar
    25    25    23    1
    26     9    10    1
    27    19    22    1
@<TRIPOS>MOLECULE
*****
 25 27 0 0 0
SMALL
GASTEIGER

@<TRIPOS>ATOM
      1 C          61.9783   89.7139   11.8103 C.ar    1  UNL1        0.0549
      2 C          60.5163   90.0040   11.6422 C.ar    1  UNL1        0.0354
      3 C          59.6049   88.9582   11.0716 C.ar    1  UNL1        0.1016
      4 N          60.1556   87.6223   10.6690 N.ar    1  UNL1       -0.2289
      5 C          61.6176   87.3321   10.8371 C.ar    1  UNL1        0.1354
      6 C          62.5290   88.3779   11.4077 C.ar    1  UNL1        0.0491
      7 O          64.1872   88.9208   13.6789 O.2     1  UNL1       -0.2698
      8 C          63.9942   90.3631   13.3152 C.2     1  UNL1        0.2511
      9 N          62.8898   90.7597   12.3809 N.am    1  UNL1       -0.2802
     10 H          62.7631   91.7064   12.1422 H       1  UNL1        0.1552
     11 C          64.9057   91.4090   13.8858 C.ar    1  UNL1        0.0748
     12 C          65.7690   92.2297   12.9743 C.ar    1  UNL1        0.0628
     13 CL         65.7209   92.0047   11.4920 Cl      1  UNL1       -0.0821
     14 C          66.6804   93.2755   13.5449 C.ar    1  UNL1        0.0116
     15 C          66.7285   93.5005   15.0272 C.ar    1  UNL1        0.0017
     16 C          65.8652   92.6798   15.9387 C.ar    1  UNL1        0.0116
     17 C          64.9538   91.6340   15.3681 C.ar    1  UNL1        0.0628
     18 CL         64.0904   90.8132   16.2797 Cl      1  UNL1       -0.0821
     19 N          62.1682   85.9962   10.4346 N.am    1  UNL1       -0.2693
     20 C          62.6219   85.0250   11.4837 C.2     1  UNL1        0.2267
     21 O          62.5250   85.3896   12.9355 O.2     1  UNL1       -0.2748
     22 H          62.2318   85.7568    9.4817 H       1  UNL1        0.1563
     23 C          63.1725   83.6890   11.0812 C.3     1  UNL1        0.0769
     24 C          63.1690   82.1936   11.1986 C.3     1  UNL1        0.0096
     25 C          64.1298   82.8705   10.2666 C.3     1  UNL1        0.0096
@<TRIPOS>BOND
     1     7     8    2
     2     8     9   am
     3     9     1    1
     4     1     2   ar
     5     2     3   ar
     6     3     4   ar
     7     4     5   ar
     8     5    19    1
     9    19    20   am
    10    20    21    2
    11    20    23    1
    12    23    24    1
    13    24    25    1
    14     5     6   ar
    15     8    11    1
    16    11    12   ar
    17    12    13    1
    18    12    14   ar
    19    14    15   ar
    20    15    16   ar
    21    16    17   ar
    22    17    18    1
    23     6     1   ar
    24    17    11   ar
    25    25    23    1
    26     9    10    1
    27    19    22    1
@<TRIPOS>MOLECULE
*****
 25 27 0 0 0
SMALL
GASTEIGER

@<TRIPOS>ATOM
      1 C          62.0162   89.7178   11.8111 C.ar    1  UNL1        0.0549
      2 C          60.5564   90.0107   11.6294 C.ar    1  UNL1        0.0354
      3 C          59.6477   88.9652   11.0539 C.ar    1  UNL1        0.1016
      4 N          60.1989   87.6269   10.6601 N.ar    1  UNL1       -0.2289
      5 C          61.6588   87.3340   10.8418 C.ar    1  UNL1        0.1354
      6 C          62.5674   88.3795   11.4174 C.ar    1  UNL1        0.0491
      7 O          64.2027   88.9262   13.7065 O.2     1  UNL1       -0.2698
      8 C          64.0182   90.3675   13.3343 C.2     1  UNL1        0.2511
      9 N          62.9250   90.7634   12.3867 N.am    1  UNL1       -0.2802
     10 H          62.8038   91.7094   12.1424 H       1  UNL1        0.1552
     11 C          64.9269   91.4131   13.9099 C.ar    1  UNL1        0.0748
     12 C          64.9593   91.6455   15.3914 C.ar    1  UNL1        0.0628
     13 CL         64.0829   90.8324   16.2974 Cl      1  UNL1       -0.0821
     14 C          65.8680   92.6909   15.9668 C.ar    1  UNL1        0.0116
     15 C          66.7443   93.5040   15.0608 C.ar    1  UNL1        0.0017
     16 C          66.7120   93.2716   13.5793 C.ar    1  UNL1        0.0116
     17 C          65.8033   92.2261   13.0038 C.ar    1  UNL1        0.0628
     18 CL         65.7710   91.9936   11.5223 Cl      1  UNL1       -0.0821
     19 N          62.2099   85.9957   10.4481 N.am    1  UNL1       -0.2693
     20 C          62.5829   84.9980   11.5041 C.2     1  UNL1        0.2267
     21 O          62.4046   85.3385   12.9541 O.2     1  UNL1       -0.2748
     22 H          62.3269   85.7722    9.4964 H       1  UNL1        0.1563
     23 C          63.1341   83.6596   11.1104 C.3     1  UNL1        0.0769
     24 C          64.0414   82.8303   10.2508 C.3     1  UNL1        0.0096
     25 C          63.1814   82.1710   11.2879 C.3     1  UNL1        0.0096
@<TRIPOS>BOND
     1     7     8    2
     2     8     9   am
     3     9     1    1
     4     1     2   ar
     5     2     3   ar
     6     3     4   ar
     7     4     5   ar
     8     5    19    1
     9    19    20   am
    10    20    21    2
    11    20    23    1
    12    23    24    1
    13    24    25    1
    14     5     6   ar
    15     8    11    1
    16    11    12   ar
    17    12    13    1
    18    12    14   ar
    19    14    15   ar
    20    15    16   ar
    21    16    17   ar
    22    17    18    1
    23     6     1   ar
    24    17    11   ar
    25    25    23    1
    26     9    10    1
    27    19    22    1
@<TRIPOS>MOLECULE
*****
 25 27 0 0 0
SMALL
GASTEIGER

@<TRIPOS>ATOM
      1 C          63.6877   87.9576   13.2897 C.ar    1  UNL1        0.0549
      2 C          62.8008   88.6330   12.2861 C.ar    1  UNL1        0.0354
      3 C          62.8079   90.1280   12.1650 C.ar    1  UNL1        0.1016
      4 N          63.7020   90.9477   13.0474 N.ar    1  UNL1       -0.2289
      5 C          64.5889   90.2724   14.0510 C.ar    1  UNL1        0.1354
      6 C          64.5818   88.7774   14.1722 C.ar    1  UNL1        0.0491
      7 O          61.7835   86.3280   11.6409 O.2     1  UNL1       -0.2698
      8 C          62.7285   85.6477   12.5865 C.2     1  UNL1        0.2511
      9 N          63.6806   86.4625   13.4109 N.am    1  UNL1       -0.2802
     10 H          64.3008   86.0160   14.0316 H       1  UNL1        0.1552
     11 C          62.7214   84.1526   12.7078 C.ar    1  UNL1        0.0748
     12 C          63.0616   83.3022   11.5199 C.ar    1  UNL1        0.0628
     13 CL         63.4088   83.9469   10.2108 Cl      1  UNL1       -0.0821
     14 C          63.0545   81.8072   11.6411 C.ar    1  UNL1        0.0116
     15 C          62.7072   81.1625   12.9503 C.ar    1  UNL1        0.0017
     16 C          62.3670   82.0129   14.1381 C.ar    1  UNL1        0.0116
     17 C          62.3742   83.5079   14.0169 C.ar    1  UNL1        0.0628
     18 CL         62.0340   84.3584   15.2048 Cl      1  UNL1       -0.0821
     19 N          65.4830   91.0921   14.9334 N.am    1  UNL1       -0.2693
     20 C          66.7287   91.7106   14.3716 C.2     1  UNL1        0.2267
     21 O          67.0804   91.5093   12.9274 O.2     1  UNL1       -0.2748
     22 H          65.2522   91.2242   15.8813 H       1  UNL1        0.1563
     23 C          67.6228   92.5303   15.2541 C.3     1  UNL1        0.0769
     24 C          68.7887   92.6249   16.1930 C.3     1  UNL1        0.0096
     25 C          68.0054   93.8555   15.8435 C.3     1  UNL1        0.0096
@<TRIPOS>BOND
     1     7     8    2
     2     8     9   am
     3     9     1    1
     4     1     2   ar
     5     2     3   ar
     6     3     4   ar
     7     4     5   ar
     8     5    19    1
     9    19    20   am
    10    20    21    2
    11    20    23    1
    12    23    24    1
    13    24    25    1
    14     5     6   ar
    15     8    11    1
    16    11    12   ar
    17    12    13    1
    18    12    14   ar
    19    14    15   ar
    20    15    16   ar
    21    16    17   ar
    22    17    18    1
    23     6     1   ar
    24    17    11   ar
    25    25    23    1
    26     9    10    1
    27    19    22    1
