@<TRIPOS>MOLECULE
*****
 32 36 0 0 0
SMALL
GASTEIGER

@<TRIPOS>ATOM
      1 C          63.4960   83.4915    9.4541 C.3     1  UNL1        0.0215
      2 C          63.0497   84.8565    9.8871 C.3     1  UNL1        0.0759
      3 C          62.5599   85.8435    8.8693 C.3     1  UNL1        0.0236
      4 C          62.1137   87.2085    9.3023 C.3     1  UNL1        0.0470
      5 C          62.1572   87.5866   10.7532 C.3     1  UNL1        0.1856
      6 C          62.6470   86.5996   11.7711 C.3     1  UNL1        0.1370
      7 N          63.0932   85.2346   11.3381 N.am    1  UNL1       -0.2740
      8 C          63.5830   84.2477   12.3559 C.2     1  UNL1        0.2506
      9 O          64.0293   82.8826   11.9229 O.2     1  UNL1       -0.2699
     10 C          63.6265   84.6258   13.8068 C.ar    1  UNL1        0.0729
     11 C          64.1371   85.9758   14.2150 C.ar    1  UNL1        0.0061
     12 C          64.1806   86.3539   15.6660 C.ar    1  UNL1        0.0002
     13 C          63.7135   85.3820   16.7086 C.ar    1  UNL1        0.0016
     14 C          63.2029   84.0319   16.3004 C.ar    1  UNL1        0.0211
     15 C          63.1594   83.6538   14.8495 C.ar    1  UNL1        0.1072
     16 N          62.6489   82.3038   14.4413 N.ar    1  UNL1       -0.1477
     17 N          63.4837   81.0808   14.2018 N.ar    1  UNL1       -0.1447
     18 C          62.5646   79.9608   13.8133 C.ar    1  UNL1        0.1446
     19 C          61.1617   80.4916   13.8127 C.ar    1  UNL1        0.1446
     20 N          61.2137   81.9396   14.2008 N.ar    1  UNL1       -0.1447
     21 O          61.7109   88.9516   11.1862 O.3     1  UNL1       -0.4773
     22 C          62.6944   90.0835   11.2298 C.ar    1  UNL1        0.1414
     23 C          62.9204   90.9281   10.0110 C.ar    1  UNL1        0.0576
     24 C          63.9038   92.0598   10.0547 C.ar    1  UNL1        0.1020
     25 N          64.6612   92.3470   11.3172 N.ar    1  UNL1       -0.2414
     26 C          64.4353   91.5024   12.5360 C.ar    1  UNL1        0.1116
     27 C          65.1927   91.7896   13.7984 C.ar    1  UNL1        0.1577
     28 F          66.1761   92.9213   13.8421 F       1  UNL1       -0.2026
     29 C          64.9667   90.9450   15.0172 C.ar    1  UNL1        0.0312
     30 C          63.9833   89.8131   14.9736 C.ar    1  UNL1        0.0025
     31 C          63.2258   89.5260   13.7112 C.ar    1  UNL1        0.0047
     32 C          63.4518   90.3706   12.4923 C.ar    1  UNL1        0.0539
@<TRIPOS>BOND
     1     2     1    1
     2     2     3    1
     3     3     4    1
     4     4     5    1
     5     5    21    1
     6    21    22    1
     7    22    23   ar
     8    23    24   ar
     9    24    25   ar
    10    25    26   ar
    11    26    27   ar
    12    27    28    1
    13    27    29   ar
    14    29    30   ar
    15    30    31   ar
    16    31    32   ar
    17     5     6    1
    18     6     7    1
    19     7     8   am
    20     8     9    2
    21     8    10    1
    22    10    11   ar
    23    11    12   ar
    24    12    13   ar
    25    13    14   ar
    26    14    15   ar
    27    15    16    1
    28    16    17   ar
    29    17    18   ar
    30    18    19   ar
    31    19    20   ar
    32     7     2    1
    33    15    10   ar
    34    20    16   ar
    35    32    22   ar
    36    32    26   ar
@<TRIPOS>MOLECULE
*****
 32 36 0 0 0
SMALL
GASTEIGER

@<TRIPOS>ATOM
      1 C          63.3209   89.9112   17.3009 C.3     1  UNL1        0.0215
      2 C          63.4755   88.8350   16.2675 C.3     1  UNL1        0.0759
      3 C          63.4769   87.3931   16.6807 C.3     1  UNL1        0.0236
      4 C          63.6314   86.3169   15.6473 C.3     1  UNL1        0.0470
      5 C          63.7846   86.6827   14.2007 C.3     1  UNL1        0.1856
      6 C          63.7832   88.1247   13.7874 C.3     1  UNL1        0.1370
      7 N          63.6286   89.2009   14.8208 N.am    1  UNL1       -0.2740
      8 C          63.6272   90.6428   14.4076 C.2     1  UNL1        0.2506
      9 O          63.4726   91.7190   15.4411 O.2     1  UNL1       -0.2699
     10 C          63.7804   91.0085   12.9610 C.ar    1  UNL1        0.0729
     11 C          62.7512   90.5675   11.9629 C.ar    1  UNL1        0.0061
     12 C          62.9045   90.9333   10.5162 C.ar    1  UNL1        0.0002
     13 C          64.0868   91.7401   10.0678 C.ar    1  UNL1        0.0016
     14 C          65.1159   92.1812   11.0659 C.ar    1  UNL1        0.0211
     15 C          64.9627   91.8154   12.5125 C.ar    1  UNL1        0.1072
     16 N          65.9919   92.2565   13.5107 N.ar    1  UNL1       -0.1477
     17 N          66.1154   93.6296   14.1016 N.ar    1  UNL1       -0.1447
     18 C          67.2781   93.6236   15.0493 C.ar    1  UNL1        0.1446
     19 C          67.8732   92.2467   15.0441 C.ar    1  UNL1        0.1446
     20 N          67.0783   91.4018   14.0932 N.ar    1  UNL1       -0.1447
     21 O          63.9392   85.6065   13.1673 O.3     1  UNL1       -0.4773
     22 C          63.3651   84.2426   13.4131 C.ar    1  UNL1        0.1414
     23 C          62.6985   83.9341   14.7209 C.ar    1  UNL1        0.0576
     24 C          62.1244   82.5702   14.9666 C.ar    1  UNL1        0.1020
     25 N          62.2171   81.5150   13.9046 N.ar    1  UNL1       -0.2414
     26 C          62.8837   81.8235   12.5969 C.ar    1  UNL1        0.1116
     27 C          62.9764   80.7683   11.5349 C.ar    1  UNL1        0.1577
     28 F          62.4023   79.4045   11.7806 F       1  UNL1       -0.2026
     29 C          63.6430   81.0768   10.2271 C.ar    1  UNL1        0.0312
     30 C          64.2171   82.4407    9.9813 C.ar    1  UNL1        0.0025
     31 C          64.1244   83.4960   11.0433 C.ar    1  UNL1        0.0047
     32 C          63.4577   83.1874   12.3511 C.ar    1  UNL1        0.0539
@<TRIPOS>BOND
     1     2     1    1
     2     2     3    1
     3     3     4    1
     4     4     5    1
     5     5    21    1
     6    21    22    1
     7    22    23   ar
     8    23    24   ar
     9    24    25   ar
    10    25    26   ar
    11    26    27   ar
    12    27    28    1
    13    27    29   ar
    14    29    30   ar
    15    30    31   ar
    16    31    32   ar
    17     5     6    1
    18     6     7    1
    19     7     8   am
    20     8     9    2
    21     8    10    1
    22    10    11   ar
    23    11    12   ar
    24    12    13   ar
    25    13    14   ar
    26    14    15   ar
    27    15    16    1
    28    16    17   ar
    29    17    18   ar
    30    18    19   ar
    31    19    20   ar
    32     7     2    1
    33    15    10   ar
    34    20    16   ar
    35    32    22   ar
    36    32    26   ar
@<TRIPOS>MOLECULE
*****
 32 36 0 0 0
SMALL
GASTEIGER

@<TRIPOS>ATOM
      1 C          60.9466   86.4241    9.0876 C.3     1  UNL1        0.0215
      2 C          61.4330   87.6462    9.8087 C.3     1  UNL1        0.0759
      3 C          61.0900   89.0105    9.2880 C.3     1  UNL1        0.0236
      4 C          61.5764   90.2326   10.0090 C.3     1  UNL1        0.0470
      5 C          62.4058   90.0905   11.2507 C.3     1  UNL1        0.1856
      6 C          62.7488   88.7262   11.7714 C.3     1  UNL1        0.1370
      7 N          62.2624   87.5040   11.0504 N.am    1  UNL1       -0.2740
      8 C          62.6055   86.1398   11.5711 C.2     1  UNL1        0.2506
      9 O          62.1191   84.9177   10.8501 O.2     1  UNL1       -0.2699
     10 C          63.4349   85.9977   12.8128 C.ar    1  UNL1        0.0729
     11 C          63.6663   87.1847   13.7001 C.ar    1  UNL1        0.0061
     12 C          64.4957   87.0426   14.9418 C.ar    1  UNL1        0.0002
     13 C          65.0937   85.7134   15.2962 C.ar    1  UNL1        0.0016
     14 C          64.8623   84.5263   14.4089 C.ar    1  UNL1        0.0211
     15 C          64.0329   84.6684   13.1672 C.ar    1  UNL1        0.1072
     16 N          63.8014   83.4814   12.2799 N.ar    1  UNL1       -0.1477
     17 N          64.5674   83.1494   11.0337 N.ar    1  UNL1       -0.1447
     18 C          64.0028   81.8807   10.4666 C.ar    1  UNL1        0.1446
     19 C          62.8878   81.4286   11.3624 C.ar    1  UNL1        0.1446
     20 N          62.7633   82.4178   12.4830 N.ar    1  UNL1       -0.1447
     21 O          62.8922   91.3126   11.9717 O.3     1  UNL1       -0.4773
     22 C          64.3272   91.7326   11.8519 C.ar    1  UNL1        0.1414
     23 C          64.8906   92.1043   10.5124 C.ar    1  UNL1        0.0576
     24 C          66.3256   92.5243   10.3927 C.ar    1  UNL1        0.1020
     25 N          67.1972   92.5727   11.6125 N.ar    1  UNL1       -0.2414
     26 C          66.6338   92.2010   12.9521 C.ar    1  UNL1        0.1116
     27 C          67.5054   92.2494   14.1719 C.ar    1  UNL1        0.1577
     28 F          68.9404   92.6694   14.0522 F       1  UNL1       -0.2026
     29 C          66.9420   91.8777   15.5114 C.ar    1  UNL1        0.0312
     30 C          65.5069   91.4577   15.6312 C.ar    1  UNL1        0.0025
     31 C          64.6354   91.4093   14.4114 C.ar    1  UNL1        0.0047
     32 C          65.1988   91.7810   13.0718 C.ar    1  UNL1        0.0539
@<TRIPOS>BOND
     1     2     1    1
     2     2     3    1
     3     3     4    1
     4     4     5    1
     5     5    21    1
     6    21    22    1
     7    22    23   ar
     8    23    24   ar
     9    24    25   ar
    10    25    26   ar
    11    26    27   ar
    12    27    28    1
    13    27    29   ar
    14    29    30   ar
    15    30    31   ar
    16    31    32   ar
    17     5     6    1
    18     6     7    1
    19     7     8   am
    20     8     9    2
    21     8    10    1
    22    10    11   ar
    23    11    12   ar
    24    12    13   ar
    25    13    14   ar
    26    14    15   ar
    27    15    16    1
    28    16    17   ar
    29    17    18   ar
    30    18    19   ar
    31    19    20   ar
    32     7     2    1
    33    15    10   ar
    34    20    16   ar
    35    32    22   ar
    36    32    26   ar
@<TRIPOS>MOLECULE
*****
 32 36 0 0 0
SMALL
GASTEIGER

@<TRIPOS>ATOM
      1 C          60.8459   86.0278    8.9036 C.3     1  UNL1        0.0215
      2 C          61.2098   87.2895    9.6287 C.3     1  UNL1        0.0759
      3 C          60.7413   88.6157    9.1077 C.3     1  UNL1        0.0236
      4 C          61.1053   89.8774    9.8328 C.3     1  UNL1        0.0470
      5 C          61.9377   89.8128   11.0789 C.3     1  UNL1        0.1856
      6 C          62.4063   88.4865   11.5999 C.3     1  UNL1        0.1370
      7 N          62.0424   87.2248   10.8748 N.am    1  UNL1       -0.2740
      8 C          62.5109   85.8985   11.3958 C.2     1  UNL1        0.2506
      9 O          62.1470   84.6369   10.6707 O.2     1  UNL1       -0.2699
     10 C          63.3434   85.8339   12.6418 C.ar    1  UNL1        0.0729
     11 C          63.5724   87.0728   13.4559 C.ar    1  UNL1        0.0061
     12 C          64.4049   87.0082   14.7021 C.ar    1  UNL1        0.0002
     13 C          65.0084   85.7047   15.1340 C.ar    1  UNL1        0.0016
     14 C          64.7795   84.4658   14.3200 C.ar    1  UNL1        0.0211
     15 C          63.9470   84.5304   13.0739 C.ar    1  UNL1        0.1072
     16 N          63.7180   83.2915   12.2598 N.ar    1  UNL1       -0.1477
     17 N          62.6784   82.2428   12.5235 N.ar    1  UNL1       -0.1447
     18 C          62.8063   81.1870   11.4657 C.ar    1  UNL1        0.1446
     19 C          63.9249   81.5831   10.5483 C.ar    1  UNL1        0.1446
     20 N          64.4884   82.8838   11.0390 N.ar    1  UNL1       -0.1447
     21 O          62.3017   91.0744   11.8040 O.3     1  UNL1       -0.4773
     22 C          63.4509   91.0805   12.7681 C.ar    1  UNL1        0.1414
     23 C          63.2723   90.5286   14.1513 C.ar    1  UNL1        0.0576
     24 C          64.4214   90.5347   15.1154 C.ar    1  UNL1        0.1020
     25 N          65.7491   91.0927   14.6962 N.ar    1  UNL1       -0.2414
     26 C          65.9277   91.6446   13.3129 C.ar    1  UNL1        0.1116
     27 C          67.2555   92.2027   12.8937 C.ar    1  UNL1        0.1577
     28 F          68.4046   92.2088   13.8577 F       1  UNL1       -0.2026
     29 C          67.4340   92.7546   11.5104 C.ar    1  UNL1        0.0312
     30 C          66.2849   92.7485   10.5463 C.ar    1  UNL1        0.0025
     31 C          64.9572   92.1905   10.9655 C.ar    1  UNL1        0.0047
     32 C          64.7786   91.6385   12.3489 C.ar    1  UNL1        0.0539
@<TRIPOS>BOND
     1     2     1    1
     2     2     3    1
     3     3     4    1
     4     4     5    1
     5     5    21    1
     6    21    22    1
     7    22    23   ar
     8    23    24   ar
     9    24    25   ar
    10    25    26   ar
    11    26    27   ar
    12    27    28    1
    13    27    29   ar
    14    29    30   ar
    15    30    31   ar
    16    31    32   ar
    17     5     6    1
    18     6     7    1
    19     7     8   am
    20     8     9    2
    21     8    10    1
    22    10    11   ar
    23    11    12   ar
    24    12    13   ar
    25    13    14   ar
    26    14    15   ar
    27    15    16    1
    28    16    17   ar
    29    17    18   ar
    30    18    19   ar
    31    19    20   ar
    32     7     2    1
    33    15    10   ar
    34    20    16   ar
    35    32    22   ar
    36    32    26   ar
@<TRIPOS>MOLECULE
*****
 32 36 0 0 0
SMALL
GASTEIGER

@<TRIPOS>ATOM
      1 C          63.0231   84.0145    9.4425 C.3     1  UNL1        0.0215
      2 C          62.7558   85.4007    9.9493 C.3     1  UNL1        0.0759
      3 C          62.3152   86.4747    8.9993 C.3     1  UNL1        0.0236
      4 C          62.0479   87.8609    9.5062 C.3     1  UNL1        0.0470
      5 C          62.2212   88.1732   10.9630 C.3     1  UNL1        0.1856
      6 C          62.6617   87.0993   11.9131 C.3     1  UNL1        0.1370
      7 N          62.9290   85.7130   11.4062 N.am    1  UNL1       -0.2740
      8 C          63.3696   84.6391   12.3562 C.2     1  UNL1        0.2506
      9 O          63.6369   83.2528   11.8494 O.2     1  UNL1       -0.2699
     10 C          63.5428   84.9514   13.8130 C.ar    1  UNL1        0.0729
     11 C          63.9944   86.3170   14.2388 C.ar    1  UNL1        0.0061
     12 C          64.1677   86.6292   15.6958 C.ar    1  UNL1        0.0002
     13 C          63.8893   85.5760   16.7268 C.ar    1  UNL1        0.0016
     14 C          63.4378   84.2104   16.3010 C.ar    1  UNL1        0.0211
     15 C          63.2645   83.8981   14.8442 C.ar    1  UNL1        0.1072
     16 N          62.8129   82.5325   14.4184 N.ar    1  UNL1       -0.1477
     17 N          61.3932   82.1035   14.1939 N.ar    1  UNL1       -0.1447
     18 C          61.4046   80.6620   13.7791 C.ar    1  UNL1        0.1446
     19 C          62.8314   80.2001   13.7473 C.ar    1  UNL1        0.1446
     20 N          63.7017   81.3562   14.1424 N.ar    1  UNL1       -0.1447
     21 O          61.9539   89.5595   11.4698 O.3     1  UNL1       -0.4773
     22 C          62.8355   90.1542   12.5277 C.ar    1  UNL1        0.1414
     23 C          62.6830   89.7282   13.9578 C.ar    1  UNL1        0.0576
     24 C          63.5647   90.3229   15.0156 C.ar    1  UNL1        0.1020
     25 N          64.5988   91.3438   14.6433 N.ar    1  UNL1       -0.2414
     26 C          64.7512   91.7698   13.2132 C.ar    1  UNL1        0.1116
     27 C          65.7853   92.7906   12.8409 C.ar    1  UNL1        0.1577
     28 F          66.6669   93.3854   13.8987 F       1  UNL1       -0.2026
     29 C          65.9378   93.2167   11.4108 C.ar    1  UNL1        0.0312
     30 C          65.0561   92.6219   10.3529 C.ar    1  UNL1        0.0025
     31 C          64.0220   91.6011   10.7252 C.ar    1  UNL1        0.0047
     32 C          63.8696   91.1750   12.1554 C.ar    1  UNL1        0.0539
@<TRIPOS>BOND
     1     2     1    1
     2     2     3    1
     3     3     4    1
     4     4     5    1
     5     5    21    1
     6    21    22    1
     7    22    23   ar
     8    23    24   ar
     9    24    25   ar
    10    25    26   ar
    11    26    27   ar
    12    27    28    1
    13    27    29   ar
    14    29    30   ar
    15    30    31   ar
    16    31    32   ar
    17     5     6    1
    18     6     7    1
    19     7     8   am
    20     8     9    2
    21     8    10    1
    22    10    11   ar
    23    11    12   ar
    24    12    13   ar
    25    13    14   ar
    26    14    15   ar
    27    15    16    1
    28    16    17   ar
    29    17    18   ar
    30    18    19   ar
    31    19    20   ar
    32     7     2    1
    33    15    10   ar
    34    20    16   ar
    35    32    22   ar
    36    32    26   ar
@<TRIPOS>MOLECULE
*****
 32 36 0 0 0
SMALL
GASTEIGER

@<TRIPOS>ATOM
      1 C          62.0600   90.1431   10.0259 C.3     1  UNL1        0.0215
      2 C          62.5491   89.1283   11.0163 C.3     1  UNL1        0.0759
      3 C          62.2414   87.6742   10.8141 C.3     1  UNL1        0.0236
      4 C          62.7304   86.6593   11.8045 C.3     1  UNL1        0.0470
      5 C          63.5271   87.0985   12.9971 C.3     1  UNL1        0.1856
      6 C          63.8348   88.5527   13.1994 C.3     1  UNL1        0.1370
      7 N          63.3458   89.5676   12.2090 N.am    1  UNL1       -0.2740
      8 C          63.6535   91.0216   12.4111 C.2     1  UNL1        0.2506
      9 O          63.1644   92.0365   11.4207 O.2     1  UNL1       -0.2699
     10 C          64.4501   91.4609   13.6037 C.ar    1  UNL1        0.0729
     11 C          64.0029   91.0835   14.9849 C.ar    1  UNL1        0.0061
     12 C          64.7996   91.5227   16.1775 C.ar    1  UNL1        0.0002
     13 C          66.0436   92.3394   15.9890 C.ar    1  UNL1        0.0016
     14 C          66.4909   92.7168   14.6078 C.ar    1  UNL1        0.0211
     15 C          65.6942   92.2775   13.4152 C.ar    1  UNL1        0.1072
     16 N          66.1415   92.6549   12.0341 N.ar    1  UNL1       -0.1477
     17 N          65.6159   93.7992   11.2190 N.ar    1  UNL1       -0.1447
     18 C          66.3425   93.8058    9.9067 C.ar    1  UNL1        0.1446
     19 C          67.3172   92.6656    9.9108 C.ar    1  UNL1        0.1446
     20 N          67.1929   91.9544   11.2256 N.ar    1  UNL1       -0.1447
     21 O          64.0161   86.0837   13.9875 O.3     1  UNL1       -0.4773
     22 C          63.3497   84.7429   14.0785 C.ar    1  UNL1        0.1414
     23 C          62.5090   84.4028   15.2733 C.ar    1  UNL1        0.0576
     24 C          61.8426   83.0620   15.3643 C.ar    1  UNL1        0.1020
     25 N          62.0170   82.0614   14.2605 N.ar    1  UNL1       -0.2414
     26 C          62.8578   82.4015   13.0658 C.ar    1  UNL1        0.1116
     27 C          63.0322   81.4008   11.9620 C.ar    1  UNL1        0.1577
     28 F          62.3658   80.0601   12.0530 F       1  UNL1       -0.2026
     29 C          63.8729   81.7409   10.7673 C.ar    1  UNL1        0.0312
     30 C          64.5393   83.0817   10.6762 C.ar    1  UNL1        0.0025
     31 C          64.3649   84.0824   11.7800 C.ar    1  UNL1        0.0047
     32 C          63.5241   83.7422   12.9748 C.ar    1  UNL1        0.0539
@<TRIPOS>BOND
     1     2     1    1
     2     2     3    1
     3     3     4    1
     4     4     5    1
     5     5    21    1
     6    21    22    1
     7    22    23   ar
     8    23    24   ar
     9    24    25   ar
    10    25    26   ar
    11    26    27   ar
    12    27    28    1
    13    27    29   ar
    14    29    30   ar
    15    30    31   ar
    16    31    32   ar
    17     5     6    1
    18     6     7    1
    19     7     8   am
    20     8     9    2
    21     8    10    1
    22    10    11   ar
    23    11    12   ar
    24    12    13   ar
    25    13    14   ar
    26    14    15   ar
    27    15    16    1
    28    16    17   ar
    29    17    18   ar
    30    18    19   ar
    31    19    20   ar
    32     7     2    1
    33    15    10   ar
    34    20    16   ar
    35    32    22   ar
    36    32    26   ar
@<TRIPOS>MOLECULE
*****
 32 36 0 0 0
SMALL
GASTEIGER

@<TRIPOS>ATOM
      1 C          63.1323   83.5514   12.4855 C.3     1  UNL1        0.0215
      2 C          63.5095   84.8895   13.0487 C.3     1  UNL1        0.0759
      3 C          64.5042   84.9789   14.1679 C.3     1  UNL1        0.0236
      4 C          64.8815   86.3170   14.7310 C.3     1  UNL1        0.0470
      5 C          64.2640   87.5658   14.1750 C.3     1  UNL1        0.1856
      6 C          63.2693   87.4765   13.0557 C.3     1  UNL1        0.1370
      7 N          62.8920   86.1384   12.4926 N.am    1  UNL1       -0.2740
      8 C          61.8974   86.0491   11.3734 C.2     1  UNL1        0.2506
      9 O          61.5201   84.7110   10.8103 O.2     1  UNL1       -0.2699
     10 C          61.2799   87.2979   10.8174 C.ar    1  UNL1        0.0729
     11 C          60.8278   88.3876   11.7437 C.ar    1  UNL1        0.0061
     12 C          60.2103   89.6365   11.1876 C.ar    1  UNL1        0.0002
     13 C          60.0451   89.7956    9.7053 C.ar    1  UNL1        0.0016
     14 C          60.4972   88.7058    8.7790 C.ar    1  UNL1        0.0211
     15 C          61.1147   87.4570    9.3350 C.ar    1  UNL1        0.1072
     16 N          61.5669   86.3673    8.4087 N.ar    1  UNL1       -0.1477
     17 N          60.7145   85.6596    7.3974 N.ar    1  UNL1       -0.1447
     18 C          61.5717   84.6488    6.6947 C.ar    1  UNL1        0.1446
     19 C          62.9538   84.7319    7.2717 C.ar    1  UNL1        0.1446
     20 N          62.9508   85.7939    8.3310 N.ar    1  UNL1       -0.1447
     21 O          64.6413   88.9039   14.7381 O.3     1  UNL1       -0.4773
     22 C          64.6450   90.1157   13.8540 C.ar    1  UNL1        0.1414
     23 C          63.7196   90.1873   12.6757 C.ar    1  UNL1        0.0576
     24 C          63.7234   91.3990   11.7916 C.ar    1  UNL1        0.1020
     25 N          64.6527   92.5391   12.0858 N.ar    1  UNL1       -0.2414
     26 C          65.5781   92.4675   13.2641 C.ar    1  UNL1        0.1116
     27 C          66.5074   93.6077   13.5582 C.ar    1  UNL1        0.1577
     28 F          66.5112   94.8194   12.6741 F       1  UNL1       -0.2026
     29 C          67.4329   93.5361   14.7365 C.ar    1  UNL1        0.0312
     30 C          67.4291   92.3243   15.6206 C.ar    1  UNL1        0.0025
     31 C          66.4998   91.1842   15.3265 C.ar    1  UNL1        0.0047
     32 C          65.5743   91.2558   14.1481 C.ar    1  UNL1        0.0539
@<TRIPOS>BOND
     1     2     1    1
     2     2     3    1
     3     3     4    1
     4     4     5    1
     5     5    21    1
     6    21    22    1
     7    22    23   ar
     8    23    24   ar
     9    24    25   ar
    10    25    26   ar
    11    26    27   ar
    12    27    28    1
    13    27    29   ar
    14    29    30   ar
    15    30    31   ar
    16    31    32   ar
    17     5     6    1
    18     6     7    1
    19     7     8   am
    20     8     9    2
    21     8    10    1
    22    10    11   ar
    23    11    12   ar
    24    12    13   ar
    25    13    14   ar
    26    14    15   ar
    27    15    16    1
    28    16    17   ar
    29    17    18   ar
    30    18    19   ar
    31    19    20   ar
    32     7     2    1
    33    15    10   ar
    34    20    16   ar
    35    32    22   ar
    36    32    26   ar
@<TRIPOS>MOLECULE
*****
 32 36 0 0 0
SMALL
GASTEIGER

@<TRIPOS>ATOM
      1 C          63.4250   84.3273   12.7880 C.3     1  UNL1        0.0215
      2 C          63.6450   85.7179   13.3055 C.3     1  UNL1        0.0759
      3 C          64.5567   85.9478   14.4742 C.3     1  UNL1        0.0236
      4 C          64.7767   87.3384   14.9917 C.3     1  UNL1        0.0470
      5 C          64.0848   88.4991   14.3406 C.3     1  UNL1        0.1856
      6 C          63.1730   88.2693   13.1718 C.3     1  UNL1        0.1370
      7 N          62.9531   86.8786   12.6543 N.am    1  UNL1       -0.2740
      8 C          62.0413   86.6487   11.4857 C.2     1  UNL1        0.2506
      9 O          61.8214   85.2581   10.9682 O.2     1  UNL1       -0.2699
     10 C          61.3494   87.8095   10.8346 C.ar    1  UNL1        0.0729
     11 C          60.9104   88.9811   11.6619 C.ar    1  UNL1        0.0061
     12 C          60.2185   90.1419   11.0107 C.ar    1  UNL1        0.0002
     13 C          59.9657   90.1310    9.5322 C.ar    1  UNL1        0.0016
     14 C          60.4048   88.9593    8.7049 C.ar    1  UNL1        0.0211
     15 C          61.0966   87.7986    9.3560 C.ar    1  UNL1        0.1072
     16 N          61.5356   86.6269    8.5287 N.ar    1  UNL1       -0.1477
     17 N          60.6698   85.8312    7.5975 N.ar    1  UNL1       -0.1447
     18 C          61.5166   84.7578    6.9806 C.ar    1  UNL1        0.1446
     19 C          62.9059   84.8901    7.5304 C.ar    1  UNL1        0.1446
     20 N          62.9176   86.0453    8.4872 N.ar    1  UNL1       -0.1447
     21 O          64.3047   89.8897   14.8581 O.3     1  UNL1       -0.4773
     22 C          65.3654   90.7578   14.2485 C.ar    1  UNL1        0.1414
     23 C          66.6419   91.0166   14.9925 C.ar    1  UNL1        0.0576
     24 C          67.7025   91.8846   14.3830 C.ar    1  UNL1        0.1020
     25 N          67.4866   92.4939   13.0294 N.ar    1  UNL1       -0.2414
     26 C          66.2101   92.2352   12.2854 C.ar    1  UNL1        0.1116
     27 C          65.9943   92.8445   10.9318 C.ar    1  UNL1        0.1577
     28 F          67.0548   93.7125   10.3223 F       1  UNL1       -0.2026
     29 C          64.7178   92.5857   10.1878 C.ar    1  UNL1        0.0312
     30 C          63.6571   91.7176   10.7974 C.ar    1  UNL1        0.0025
     31 C          63.8730   91.1083   12.1509 C.ar    1  UNL1        0.0047
     32 C          65.1495   91.3671   12.8950 C.ar    1  UNL1        0.0539
@<TRIPOS>BOND
     1     2     1    1
     2     2     3    1
     3     3     4    1
     4     4     5    1
     5     5    21    1
     6    21    22    1
     7    22    23   ar
     8    23    24   ar
     9    24    25   ar
    10    25    26   ar
    11    26    27   ar
    12    27    28    1
    13    27    29   ar
    14    29    30   ar
    15    30    31   ar
    16    31    32   ar
    17     5     6    1
    18     6     7    1
    19     7     8   am
    20     8     9    2
    21     8    10    1
    22    10    11   ar
    23    11    12   ar
    24    12    13   ar
    25    13    14   ar
    26    14    15   ar
    27    15    16    1
    28    16    17   ar
    29    17    18   ar
    30    18    19   ar
    31    19    20   ar
    32     7     2    1
    33    15    10   ar
    34    20    16   ar
    35    32    22   ar
    36    32    26   ar
@<TRIPOS>MOLECULE
*****
 32 36 0 0 0
SMALL
GASTEIGER

@<TRIPOS>ATOM
      1 C          61.9766   90.6323    9.1727 C.3     1  UNL1        0.0215
      2 C          62.2336   89.4265   10.0271 C.3     1  UNL1        0.0759
      3 C          61.7638   88.0748    9.5776 C.3     1  UNL1        0.0236
      4 C          62.0208   86.8690   10.4320 C.3     1  UNL1        0.0470
      5 C          62.7478   87.0149   11.7359 C.3     1  UNL1        0.1856
      6 C          63.2177   88.3667   12.1855 C.3     1  UNL1        0.1370
      7 N          62.9606   89.5725   11.3311 N.am    1  UNL1       -0.2740
      8 C          63.4305   90.9242   11.7806 C.2     1  UNL1        0.2506
      9 O          63.1734   92.1299   10.9262 O.2     1  UNL1       -0.2699
     10 C          64.1574   91.0701   13.0845 C.ar    1  UNL1        0.0729
     11 C          63.6612   90.3519   14.3043 C.ar    1  UNL1        0.0061
     12 C          64.3882   90.4979   15.6083 C.ar    1  UNL1        0.0002
     13 C          65.6114   91.3619   15.6923 C.ar    1  UNL1        0.0016
     14 C          66.1076   92.0801   14.4725 C.ar    1  UNL1        0.0211
     15 C          65.3807   91.9342   13.1686 C.ar    1  UNL1        0.1072
     16 N          65.8770   92.6523   11.9488 N.ar    1  UNL1       -0.1477
     17 N          65.6899   94.1096   11.6464 N.ar    1  UNL1       -0.1447
     18 C          66.3447   94.3972   10.3279 C.ar    1  UNL1        0.1446
     19 C          66.9365   93.1177    9.8154 C.ar    1  UNL1        0.1446
     20 N          66.6474   92.0394   10.8171 N.ar    1  UNL1       -0.1447
     21 O          63.0048   85.8092   12.5903 O.3     1  UNL1       -0.4773
     22 C          63.1912   84.4642   11.9528 C.ar    1  UNL1        0.1414
     23 C          63.8118   84.3590   10.5913 C.ar    1  UNL1        0.0576
     24 C          63.9982   83.0141    9.9539 C.ar    1  UNL1        0.1020
     25 N          63.5640   81.7743   10.6780 N.ar    1  UNL1       -0.2414
     26 C          62.9434   81.8794   12.0395 C.ar    1  UNL1        0.1116
     27 C          62.5092   80.6396   12.7636 C.ar    1  UNL1        0.1577
     28 F          62.6956   79.2946   12.1262 F       1  UNL1       -0.2026
     29 C          61.8887   80.7447   14.1251 C.ar    1  UNL1        0.0312
     30 C          61.7023   82.0897   14.7626 C.ar    1  UNL1        0.0025
     31 C          62.1365   83.3295   14.0385 C.ar    1  UNL1        0.0047
     32 C          62.7571   83.2243   12.6769 C.ar    1  UNL1        0.0539
@<TRIPOS>BOND
     1     2     1    1
     2     2     3    1
     3     3     4    1
     4     4     5    1
     5     5    21    1
     6    21    22    1
     7    22    23   ar
     8    23    24   ar
     9    24    25   ar
    10    25    26   ar
    11    26    27   ar
    12    27    28    1
    13    27    29   ar
    14    29    30   ar
    15    30    31   ar
    16    31    32   ar
    17     5     6    1
    18     6     7    1
    19     7     8   am
    20     8     9    2
    21     8    10    1
    22    10    11   ar
    23    11    12   ar
    24    12    13   ar
    25    13    14   ar
    26    14    15   ar
    27    15    16    1
    28    16    17   ar
    29    17    18   ar
    30    18    19   ar
    31    19    20   ar
    32     7     2    1
    33    15    10   ar
    34    20    16   ar
    35    32    22   ar
    36    32    26   ar
