@<TRIPOS>MOLECULE
*****
 29 31 0 0 0
SMALL
GASTEIGER

@<TRIPOS>ATOM
      1 N          63.1197   90.0794   12.4228 N.am    1  UNL1       -0.2620
      2 C          62.2449   90.8081   11.4463 C.3     1  UNL1        0.1401
      3 C          61.6521   89.7968   10.5105 C.ar    1  UNL1        0.0830
      4 N          60.7150   89.9337    9.3473 N.ar    1  UNL1       -0.2524
      5 C          60.2863   88.7168    8.5822 C.ar    1  UNL1        0.0563
      6 C          59.3493   88.8538    7.4190 C.3     1  UNL1        0.0518
      7 C          60.7948   87.3629    8.9803 C.ar    1  UNL1        0.0072
      8 C          61.7319   87.2260   10.1436 C.ar    1  UNL1        0.0048
      9 C          62.1605   88.4429   10.9086 C.ar    1  UNL1        0.0686
     10 C          63.0676   88.6176   12.0905 C.2     1  UNL1        0.2509
     11 O          63.7948   87.5226   12.8132 O.2     1  UNL1       -0.2698
     12 C          62.2404   85.8721   10.5417 C.ar    1  UNL1        0.0106
     13 C          61.9017   85.3107   11.8908 C.ar    1  UNL1        0.0017
     14 C          62.4101   83.9568   12.2889 C.ar    1  UNL1        0.0114
     15 C          63.2572   83.1644   11.3380 C.ar    1  UNL1        0.0585
     16 CL         63.7657   81.8105   11.7361 Cl      1  UNL1       -0.0822
     17 C          63.5960   83.7258    9.9888 C.ar    1  UNL1        0.0228
     18 C          63.0875   85.0797    9.5907 C.ar    1  UNL1        0.0585
     19 CL         63.4262   85.6411    8.2416 Cl      1  UNL1       -0.0822
     20 C          60.3662   86.1460    8.2152 C.3     1  UNL1        0.0934
     21 N          58.9592   86.0368    7.7069 N.3     1  UNL1       -0.3174
     22 H          58.3161   85.9774    8.4964 H       1  UNL1        0.1192
     23 H          58.8696   85.1993    7.1316 H       1  UNL1        0.1192
     24 C          63.9082   90.7029   13.5361 C.3     1  UNL1        0.1796
     25 C          63.0925   88.6294   16.8202 C.3     1  UNL1        0.1107
     26 N          63.4253   88.9516   15.3935 N.am    1  UNL1       -0.3013
     27 C          63.5755   90.3806   14.9628 C.2     1  UNL1        0.2428
     28 O          63.3930   91.4873   15.9588 O.2     1  UNL1       -0.2732
     29 H          63.5450   88.2253   14.7398 H       1  UNL1        0.1495
@<TRIPOS>BOND
     1    25    26    1
     2    26    27   am
     3    27    28    2
     4    27    24    1
     5    24     1    1
     6     1     2    1
     7     2     3    1
     8     3     4   ar
     9     4     5   ar
    10     5     6    1
    11     5     7   ar
    12     7    20    1
    13    20    21    1
    14     7     8   ar
    15     8    12    1
    16    12    13   ar
    17    13    14   ar
    18    14    15   ar
    19    15    16    1
    20    15    17   ar
    21    17    18   ar
    22    18    19    1
    23     8     9   ar
    24     9    10    1
    25    10    11    2
    26    10     1   am
    27     9     3   ar
    28    18    12   ar
    29    26    29    1
    30    21    22    1
    31    21    23    1
@<TRIPOS>MOLECULE
*****
 29 31 0 0 0
SMALL
GASTEIGER

@<TRIPOS>ATOM
      1 N          63.9088   84.9523   14.4292 N.am    1  UNL1       -0.2620
      2 C          64.4810   86.1831   15.0676 C.3     1  UNL1        0.1401
      3 C          64.1400   87.3573   14.1987 C.ar    1  UNL1        0.0830
      4 N          64.4413   88.8212   14.3260 N.ar    1  UNL1       -0.2524
      5 C          63.9595   89.7800   13.2778 C.ar    1  UNL1        0.0563
      6 C          64.2608   91.2439   13.4051 C.3     1  UNL1        0.0518
      7 C          63.1765   89.2749   12.1023 C.ar    1  UNL1        0.0072
      8 C          62.8752   87.8109   11.9751 C.ar    1  UNL1        0.0048
      9 C          63.3570   86.8522   13.0232 C.ar    1  UNL1        0.0686
     10 C          63.2141   85.3658   13.1657 C.2     1  UNL1        0.2509
     11 O          62.5016   84.4531   12.2121 O.2     1  UNL1       -0.2698
     12 C          62.0922   87.3057   10.7996 C.ar    1  UNL1        0.0106
     13 C          62.7950   86.6018    9.6769 C.ar    1  UNL1        0.0017
     14 C          62.0120   86.0967    8.5014 C.ar    1  UNL1        0.0114
     15 C          60.5262   86.2954    8.4487 C.ar    1  UNL1        0.0585
     16 CL         59.7432   85.7903    7.2732 Cl      1  UNL1       -0.0822
     17 C          59.8233   86.9993    9.5715 C.ar    1  UNL1        0.0228
     18 C          60.6063   87.5045   10.7469 C.ar    1  UNL1        0.0585
     19 CL         59.9035   88.2084   11.8696 Cl      1  UNL1       -0.0822
     20 C          62.6947   90.2336   11.0541 C.3     1  UNL1        0.0934
     21 N          61.4265   91.0050   11.2694 N.3     1  UNL1       -0.3174
     22 H          60.6358   90.3610   11.2881 H       1  UNL1        0.1192
     23 H          61.3023   91.6740   10.5095 H       1  UNL1        0.1192
     24 C          64.0130   83.5536   14.9609 C.3     1  UNL1        0.1796
     25 C          61.3481   80.8012   13.9250 C.3     1  UNL1        0.1107
     26 N          62.0049   81.9332   14.6582 N.am    1  UNL1       -0.3013
     27 C          63.3563   82.4217   14.2278 C.2     1  UNL1        0.2428
     28 O          64.0508   81.7782   13.0643 O.2     1  UNL1       -0.2732
     29 H          61.5490   82.3555   15.4218 H       1  UNL1        0.1495
@<TRIPOS>BOND
     1    25    26    1
     2    26    27   am
     3    27    28    2
     4    27    24    1
     5    24     1    1
     6     1     2    1
     7     2     3    1
     8     3     4   ar
     9     4     5   ar
    10     5     6    1
    11     5     7   ar
    12     7    20    1
    13    20    21    1
    14     7     8   ar
    15     8    12    1
    16    12    13   ar
    17    13    14   ar
    18    14    15   ar
    19    15    16    1
    20    15    17   ar
    21    17    18   ar
    22    18    19    1
    23     8     9   ar
    24     9    10    1
    25    10    11    2
    26    10     1   am
    27     9     3   ar
    28    18    12   ar
    29    26    29    1
    30    21    22    1
    31    21    23    1
@<TRIPOS>MOLECULE
*****
 29 31 0 0 0
SMALL
GASTEIGER

@<TRIPOS>ATOM
      1 N          62.8156   90.2127   12.0431 N.am    1  UNL1       -0.2620
      2 C          61.8605   90.8027   11.0482 C.3     1  UNL1        0.1401
      3 C          61.3105   89.6840   10.2139 C.ar    1  UNL1        0.0830
      4 N          60.3291   89.6666    9.0797 N.ar    1  UNL1       -0.2524
      5 C          59.9627   88.3678    8.4247 C.ar    1  UNL1        0.0563
      6 C          58.9813   88.3504    7.2905 C.3     1  UNL1        0.0518
      7 C          60.5779   87.0864    8.9040 C.ar    1  UNL1        0.0072
      8 C          61.5594   87.1038   10.0382 C.ar    1  UNL1        0.0048
      9 C          61.9257   88.4026   10.6931 C.ar    1  UNL1        0.0686
     10 C          62.8558   88.7294   11.8237 C.2     1  UNL1        0.2509
     11 O          63.6813   87.7456   12.5987 O.2     1  UNL1       -0.2698
     12 C          62.1745   85.8225   10.5175 C.ar    1  UNL1        0.0106
     13 C          61.8475   85.2989   11.8846 C.ar    1  UNL1        0.0017
     14 C          62.4627   84.0175   12.3639 C.ar    1  UNL1        0.0114
     15 C          63.4047   83.2597   11.4761 C.ar    1  UNL1        0.0585
     16 CL         64.0199   81.9784   11.9554 Cl      1  UNL1       -0.0822
     17 C          63.7317   83.7833   10.1089 C.ar    1  UNL1        0.0228
     18 C          63.1166   85.0647    9.6296 C.ar    1  UNL1        0.0585
     19 CL         63.4436   85.5883    8.2626 Cl      1  UNL1       -0.0822
     20 C          60.2116   85.7876    8.2491 C.3     1  UNL1        0.0934
     21 N          60.6711   85.4968    6.8511 N.3     1  UNL1       -0.3174
     22 H          60.2239   86.1463    6.2042 H       1  UNL1        0.1192
     23 H          60.4181   84.5406    6.6021 H       1  UNL1        0.1192
     24 C          63.5937   90.9726   13.0761 C.3     1  UNL1        0.1796
     25 C          66.1423   92.9673   10.7791 C.3     1  UNL1        0.1107
     26 N          65.0234   92.0609   11.1995 N.am    1  UNL1       -0.3013
     27 C          64.7125   91.8790   12.6556 C.2     1  UNL1        0.2428
     28 O          65.5203   92.6035   13.6913 O.2     1  UNL1       -0.2732
     29 H          64.4932   91.5854   10.5198 H       1  UNL1        0.1495
@<TRIPOS>BOND
     1    25    26    1
     2    26    27   am
     3    27    28    2
     4    27    24    1
     5    24     1    1
     6     1     2    1
     7     2     3    1
     8     3     4   ar
     9     4     5   ar
    10     5     6    1
    11     5     7   ar
    12     7    20    1
    13    20    21    1
    14     7     8   ar
    15     8    12    1
    16    12    13   ar
    17    13    14   ar
    18    14    15   ar
    19    15    16    1
    20    15    17   ar
    21    17    18   ar
    22    18    19    1
    23     8     9   ar
    24     9    10    1
    25    10    11    2
    26    10     1   am
    27     9     3   ar
    28    18    12   ar
    29    26    29    1
    30    21    22    1
    31    21    23    1
@<TRIPOS>MOLECULE
*****
 29 31 0 0 0
SMALL
GASTEIGER

@<TRIPOS>ATOM
      1 N          61.9523   90.2053   10.4268 N.am    1  UNL1       -0.2620
      2 C          62.8950   91.3145   10.0648 C.3     1  UNL1        0.1401
      3 C          63.8844   91.4651   11.1821 C.ar    1  UNL1        0.0830
      4 N          65.0441   92.3962   11.3770 N.ar    1  UNL1       -0.2524
      5 C          65.8728   92.3113   12.6245 C.ar    1  UNL1        0.0563
      6 C          67.0325   93.2424   12.8194 C.3     1  UNL1        0.0518
      7 C          65.5416   91.2951   13.6770 C.ar    1  UNL1        0.0072
      8 C          64.3818   90.3640   13.4821 C.ar    1  UNL1        0.0048
      9 C          63.5533   90.4490   12.2346 C.ar    1  UNL1        0.0686
     10 C          62.3591   89.6704   11.7678 C.2     1  UNL1        0.2509
     11 O          61.6895   88.5531   12.5115 O.2     1  UNL1       -0.2698
     12 C          64.0507   89.3479   14.5346 C.ar    1  UNL1        0.0106
     13 C          64.3373   87.8957   14.2917 C.ar    1  UNL1        0.0017
     14 C          64.0061   86.8796   15.3442 C.ar    1  UNL1        0.0114
     15 C          63.3884   87.3157   16.6397 C.ar    1  UNL1        0.0585
     16 CL         63.0572   86.2995   17.6922 Cl      1  UNL1       -0.0822
     17 C          63.1017   88.7679   16.8826 C.ar    1  UNL1        0.0228
     18 C          63.4329   89.7840   15.8301 C.ar    1  UNL1        0.0585
     19 CL         63.1463   91.2362   16.0730 Cl      1  UNL1       -0.0822
     20 C          66.3702   91.2101   14.9245 C.3     1  UNL1        0.0934
     21 N          66.3642   92.3431   15.9075 N.3     1  UNL1       -0.3174
     22 H          66.7851   93.1674   15.4788 H       1  UNL1        0.1192
     23 H          66.8999   92.0788   16.7342 H       1  UNL1        0.1192
     24 C          60.8043   89.7168    9.5940 C.3     1  UNL1        0.1796
     25 C          59.6123   86.3895    7.7890 C.3     1  UNL1        0.1107
     26 N          59.6171   87.7970    8.3076 N.am    1  UNL1       -0.3013
     27 C          60.7995   88.3094    9.0753 C.2     1  UNL1        0.2428
     28 O          61.9771   87.4142    9.3244 O.2     1  UNL1       -0.2732
     29 H          58.8442   88.3845    8.1441 H       1  UNL1        0.1495
@<TRIPOS>BOND
     1    25    26    1
     2    26    27   am
     3    27    28    2
     4    27    24    1
     5    24     1    1
     6     1     2    1
     7     2     3    1
     8     3     4   ar
     9     4     5   ar
    10     5     6    1
    11     5     7   ar
    12     7    20    1
    13    20    21    1
    14     7     8   ar
    15     8    12    1
    16    12    13   ar
    17    13    14   ar
    18    14    15   ar
    19    15    16    1
    20    15    17   ar
    21    17    18   ar
    22    18    19    1
    23     8     9   ar
    24     9    10    1
    25    10    11    2
    26    10     1   am
    27     9     3   ar
    28    18    12   ar
    29    26    29    1
    30    21    22    1
    31    21    23    1
@<TRIPOS>MOLECULE
*****
 29 31 0 0 0
SMALL
GASTEIGER

@<TRIPOS>ATOM
      1 N          61.3264   87.4061   10.0568 N.am    1  UNL1       -0.2620
      2 C          61.8503   88.6653   10.6812 C.3     1  UNL1        0.1401
      3 C          62.6705   88.2830   11.8775 C.ar    1  UNL1        0.0830
      4 N          63.4306   89.1034   12.8770 N.ar    1  UNL1       -0.2524
      5 C          64.1738   88.4284   13.9916 C.ar    1  UNL1        0.0563
      6 C          64.9339   89.2488   14.9911 C.3     1  UNL1        0.0518
      7 C          64.1567   86.9329   14.1066 C.ar    1  UNL1        0.0072
      8 C          63.3965   86.1125   13.1070 C.ar    1  UNL1        0.0048
      9 C          62.6534   86.7875   11.9925 C.ar    1  UNL1        0.0686
     10 C          61.8227   86.2456   10.8673 C.2     1  UNL1        0.2509
     11 O          61.5383   84.7973   10.5995 O.2     1  UNL1       -0.2698
     12 C          63.3794   84.6170   13.2220 C.ar    1  UNL1        0.0106
     13 C          64.2164   83.7840   12.2970 C.ar    1  UNL1        0.0017
     14 C          64.1993   82.2885   12.4120 C.ar    1  UNL1        0.0114
     15 C          63.3452   81.6260   13.4520 C.ar    1  UNL1        0.0585
     16 CL         63.3282   80.1305   13.5669 Cl      1  UNL1       -0.0822
     17 C          62.5082   82.4589   14.3770 C.ar    1  UNL1        0.0228
     18 C          62.5253   83.9544   14.2620 C.ar    1  UNL1        0.0585
     19 CL         61.6883   84.7874   15.1870 Cl      1  UNL1       -0.0822
     20 C          64.8997   86.2578   15.2210 C.3     1  UNL1        0.0934
     21 N          66.2240   85.6065   14.9529 N.3     1  UNL1       -0.3174
     22 H          66.0913   84.8103   14.3294 H       1  UNL1        0.1192
     23 H          66.6295   85.2859   15.8322 H       1  UNL1        0.1192
     24 C          60.4585   87.3222    8.8363 C.3     1  UNL1        0.1796
     25 C          62.2050   84.5074    6.6507 C.3     1  UNL1        0.1107
     26 N          62.0152   85.6273    7.6305 N.am    1  UNL1       -0.3013
     27 C          60.6484   86.2024    7.8565 C.2     1  UNL1        0.2428
     28 O          59.4714   85.6577    7.1027 O.2     1  UNL1       -0.2732
     29 H          62.7876   85.9847    8.1253 H       1  UNL1        0.1495
@<TRIPOS>BOND
     1    25    26    1
     2    26    27   am
     3    27    28    2
     4    27    24    1
     5    24     1    1
     6     1     2    1
     7     2     3    1
     8     3     4   ar
     9     4     5   ar
    10     5     6    1
    11     5     7   ar
    12     7    20    1
    13    20    21    1
    14     7     8   ar
    15     8    12    1
    16    12    13   ar
    17    13    14   ar
    18    14    15   ar
    19    15    16    1
    20    15    17   ar
    21    17    18   ar
    22    18    19    1
    23     8     9   ar
    24     9    10    1
    25    10    11    2
    26    10     1   am
    27     9     3   ar
    28    18    12   ar
    29    26    29    1
    30    21    22    1
    31    21    23    1
@<TRIPOS>MOLECULE
*****
 29 31 0 0 0
SMALL
GASTEIGER

@<TRIPOS>ATOM
      1 N          63.6910   83.0325   13.5955 N.am    1  UNL1       -0.2620
      2 C          64.3914   83.9648   14.5390 C.3     1  UNL1        0.1401
      3 C          64.1334   85.3692   14.0796 C.ar    1  UNL1        0.0830
      4 N          64.5704   86.6983   14.6205 N.ar    1  UNL1       -0.2524
      5 C          64.1476   87.9632   13.9338 C.ar    1  UNL1        0.0563
      6 C          64.5845   89.2923   14.4747 C.3     1  UNL1        0.0518
      7 C          63.2878   87.8989   12.7064 C.ar    1  UNL1        0.0072
      8 C          62.8508   86.5697   12.1656 C.ar    1  UNL1        0.0048
      9 C          63.2736   85.3049   12.8522 C.ar    1  UNL1        0.0686
     10 C          63.0002   83.8607   12.5530 C.2     1  UNL1        0.2509
     11 O          62.1800   83.3368   11.4116 O.2     1  UNL1       -0.2698
     12 C          61.9910   86.5054   10.9381 C.ar    1  UNL1        0.0106
     13 C          60.6327   87.1416   10.9398 C.ar    1  UNL1        0.0017
     14 C          59.7729   87.0773    9.7123 C.ar    1  UNL1        0.0114
     15 C          60.2714   86.3768    8.4833 C.ar    1  UNL1        0.0585
     16 CL         59.4116   86.3124    7.2558 Cl      1  UNL1       -0.0822
     17 C          61.6298   85.7405    8.4816 C.ar    1  UNL1        0.0228
     18 C          62.4896   85.8048    9.7090 C.ar    1  UNL1        0.0585
     19 CL         63.8480   85.1686    9.7074 Cl      1  UNL1       -0.0822
     20 C          62.8649   89.1637   12.0198 C.3     1  UNL1        0.0934
     21 N          61.7218   89.9671   12.5653 N.3     1  UNL1       -0.3174
     22 H          60.8584   89.4304   12.4814 H       1  UNL1        0.1192
     23 H          61.6346   90.8359   12.0381 H       1  UNL1        0.1192
     24 C          63.6829   81.5348   13.6796 C.3     1  UNL1        0.1796
     25 C          59.9048   80.4346   14.1952 C.3     1  UNL1        0.1107
     26 N          61.1944   81.1870   14.3402 N.am    1  UNL1       -0.3013
     27 C          62.3933   80.7825   13.5347 C.2     1  UNL1        0.2428
     28 O          62.3027   79.6256   12.5841 O.2     1  UNL1       -0.2732
     29 H          61.2538   81.9463   14.9640 H       1  UNL1        0.1495
@<TRIPOS>BOND
     1    25    26    1
     2    26    27   am
     3    27    28    2
     4    27    24    1
     5    24     1    1
     6     1     2    1
     7     2     3    1
     8     3     4   ar
     9     4     5   ar
    10     5     6    1
    11     5     7   ar
    12     7    20    1
    13    20    21    1
    14     7     8   ar
    15     8    12    1
    16    12    13   ar
    17    13    14   ar
    18    14    15   ar
    19    15    16    1
    20    15    17   ar
    21    17    18   ar
    22    18    19    1
    23     8     9   ar
    24     9    10    1
    25    10    11    2
    26    10     1   am
    27     9     3   ar
    28    18    12   ar
    29    26    29    1
    30    21    22    1
    31    21    23    1
@<TRIPOS>MOLECULE
*****
 29 31 0 0 0
SMALL
GASTEIGER

@<TRIPOS>ATOM
      1 N          62.9141   93.9440   -4.0938 N.am    1  UNL1       -0.2620
      2 C          63.9702   93.7651   -3.0438 C.3     1  UNL1        0.1401
      3 C          63.2859   93.6352   -1.7153 C.ar    1  UNL1        0.0830
      4 N          63.8185   93.4399   -0.3268 N.ar    1  UNL1       -0.2524
      5 C          62.8720   93.3432    0.8329 C.ar    1  UNL1        0.0563
      6 C          63.4046   93.1479    2.2214 C.3     1  UNL1        0.0518
      7 C          61.3929   93.4419    0.6040 C.ar    1  UNL1        0.0072
      8 C          60.8603   93.6372   -0.7847 C.ar    1  UNL1        0.0048
      9 C          61.8068   93.7339   -1.9443 C.ar    1  UNL1        0.0686
     10 C          61.5770   93.9247   -3.4143 C.2     1  UNL1        0.2509
     11 O          60.2441   94.0706   -4.0866 O.2     1  UNL1       -0.2698
     12 C          59.3811   93.7359   -1.0136 C.ar    1  UNL1        0.0106
     13 C          58.5814   92.4982   -1.2942 C.ar    1  UNL1        0.0017
     14 C          57.1023   92.5969   -1.5232 C.ar    1  UNL1        0.0114
     15 C          56.4229   93.9331   -1.4715 C.ar    1  UNL1        0.0585
     16 CL         54.9437   94.0318   -1.7005 Cl      1  UNL1       -0.0822
     17 C          57.2225   95.1709   -1.1909 C.ar    1  UNL1        0.0228
     18 C          58.7017   95.0722   -0.9620 C.ar    1  UNL1        0.0585
     19 CL         59.5014   96.3098   -0.6814 Cl      1  UNL1       -0.0822
     20 C          60.4464   93.3452    1.7635 C.3     1  UNL1        0.0934
     21 N          60.0803   94.5768    2.5375 N.3     1  UNL1       -0.3174
     22 H          60.9054   94.9330    3.0199 H       1  UNL1        0.1192
     23 H          59.3594   94.3468    3.2215 H       1  UNL1        0.1192
     24 C          63.1531   94.1126   -5.5650 C.3     1  UNL1        0.1796
     25 C          65.4191   91.2118   -7.0485 C.3     1  UNL1        0.1107
     26 N          64.2708   91.9170   -6.3895 N.am    1  UNL1       -0.3013
     27 C          64.3013   93.4075   -6.2240 C.2     1  UNL1        0.2428
     28 O          65.4802   94.1929   -6.7175 O.2     1  UNL1       -0.2732
     29 H          63.4971   91.4015   -6.0656 H       1  UNL1        0.1495
@<TRIPOS>BOND
     1    25    26    1
     2    26    27   am
     3    27    28    2
     4    27    24    1
     5    24     1    1
     6     1     2    1
     7     2     3    1
     8     3     4   ar
     9     4     5   ar
    10     5     6    1
    11     5     7   ar
    12     7    20    1
    13    20    21    1
    14     7     8   ar
    15     8    12    1
    16    12    13   ar
    17    13    14   ar
    18    14    15   ar
    19    15    16    1
    20    15    17   ar
    21    17    18   ar
    22    18    19    1
    23     8     9   ar
    24     9    10    1
    25    10    11    2
    26    10     1   am
    27     9     3   ar
    28    18    12   ar
    29    26    29    1
    30    21    22    1
    31    21    23    1
