@<TRIPOS>MOLECULE
*****
 31 34 0 0 0
SMALL
GASTEIGER

@<TRIPOS>ATOM
      1 C          63.4592   86.8542   13.0354 C.ar    1  UNL1       -0.0100
      2 C          63.5676   88.3481   13.1158 C.ar    1  UNL1       -0.0075
      3 C          63.2038   89.1914   11.9298 C.ar    1  UNL1       -0.0200
      4 C          62.7316   88.5408   10.6634 C.ar    1  UNL1       -0.0045
      5 C          62.6232   87.0469   10.5830 C.ar    1  UNL1       -0.0035
      6 C          62.9870   86.2036   11.7689 C.ar    1  UNL1       -0.0036
      7 C          62.1510   86.3962    9.3166 C.2     1  UNL1       -0.0011
      8 C          63.0459   85.4394    8.5861 C.2     1  UNL1        0.0472
      9 C          62.5737   84.7888    7.3198 C.2     1  UNL1        0.2354
     10 N          61.2066   85.0950    6.7838 N.2     1  UNL1       -0.0320
     11 C          60.3117   86.0519    7.5143 C.2     1  UNL1        0.3872
     12 N          58.9237   86.5444    7.2297 N.2     1  UNL1        0.0820
     13 N          58.5381   87.4994    8.3202 N.2     1  UNL1       -0.0337
     14 C          59.6877   87.5971    9.2787 C.2     1  UNL1        0.1921
     15 C          60.7839   86.7025    8.7806 C.3     1  UNL1        0.1845
     16 C          59.7333   88.4412   10.5178 C.3     1  UNL1        0.4355
     17 F          59.7788   89.2854   11.7569 F       1  UNL1       -0.1645
     18 F          59.7729   89.6798    9.6726 F       1  UNL1       -0.1645
     19 F          59.7085   87.5435   11.5257 F       1  UNL1       -0.1645
     20 C          63.8230   86.0109   14.2213 C.3     1  UNL1        0.0980
     21 C          64.3535   85.6327   15.5724 C.3     1  UNL1        0.0196
     22 C          64.4293   87.0573   15.1088 C.3     1  UNL1        0.0196
     23 N          62.8632   83.3324   13.2702 N.1     1  UNL1       -0.1956
     24 C          63.3431   84.6717   13.7457 C.1     1  UNL1        0.0752
     25 C          63.3122   90.6853   12.0102 C.3     1  UNL1        0.0581
     26 C          64.0024   91.3254   13.1781 C.3     1  UNL1        0.1440
     27 O          63.3327   91.3572   14.5198 O.3     1  UNL1       -0.3816
     28 H          62.4666   90.9246   14.4592 H       1  UNL1        0.2105
     29 C          65.3625   91.9337   13.0041 C.3     1  UNL1        0.1666
     30 O          65.8326   93.0016   13.9467 O.3     1  UNL1       -0.3795
     31 H          65.2848   93.7945   13.8362 H       1  UNL1        0.2105
@<TRIPOS>BOND
     1    23    24    3
     2    24    20    1
     3    20     1    1
     4     1     2   ar
     5     2     3   ar
     6     3    25    1
     7    25    26    1
     8    26    27    1
     9    26    29    1
    10    29    30    1
    11     3     4   ar
    12     4     5   ar
    13     5     7    1
    14     7     8    2
    15     8     9    1
    16     9    10    2
    17    10    11    1
    18    11    12    2
    19    12    13    1
    20    13    14    2
    21    14    16    1
    22    16    17    1
    23    16    18    1
    24    16    19    1
    25    14    15    1
    26     5     6   ar
    27    20    21    1
    28    21    22    1
    29    22    20    1
    30     6     1   ar
    31    15     7    1
    32    15    11    1
    33    27    28    1
    34    30    31    1
@<TRIPOS>MOLECULE
*****
 31 34 0 0 0
SMALL
GASTEIGER

@<TRIPOS>ATOM
      1 C          63.2442   88.7149   12.1923 C.ar    1  UNL1       -0.0100
      2 C          63.5622   87.7607   13.3051 C.ar    1  UNL1       -0.0075
      3 C          63.3938   86.2845   13.0983 C.ar    1  UNL1       -0.0200
      4 C          62.9075   85.7626   11.7789 C.ar    1  UNL1       -0.0045
      5 C          62.5895   86.7169   10.6661 C.ar    1  UNL1       -0.0035
      6 C          62.7578   88.1930   10.8727 C.ar    1  UNL1       -0.0036
      7 C          62.1032   86.1949    9.3465 C.2     1  UNL1       -0.0011
      8 C          62.9468   85.2331    8.5634 C.2     1  UNL1        0.0472
      9 C          62.4605   84.7112    7.2440 C.2     1  UNL1        0.2354
     10 N          61.1306   85.1511    6.7076 N.2     1  UNL1       -0.0320
     11 C          60.2870   86.1128    7.4906 C.2     1  UNL1        0.3872
     12 N          58.9431   86.7212    7.2183 N.2     1  UNL1        0.0820
     13 N          58.5989   87.6191    8.3695 N.2     1  UNL1       -0.0337
     14 C          59.7300   87.5657    9.3533 C.2     1  UNL1        0.1921
     15 C          60.7732   86.6348    8.8101 C.3     1  UNL1        0.1845
     16 C          59.8047   88.3121   10.6522 C.3     1  UNL1        0.4355
     17 F          59.8794   89.0587   11.9511 F       1  UNL1       -0.1645
     18 F          59.8222   89.6122    9.9041 F       1  UNL1       -0.1645
     19 F          59.8057   87.3395   11.5883 F       1  UNL1       -0.1645
     20 C          63.4125   90.1910   12.3990 C.3     1  UNL1        0.0980
     21 C          63.5945   91.6465   12.0853 C.3     1  UNL1        0.0196
     22 C          63.5102   90.6443   10.9724 C.3     1  UNL1        0.0196
     23 N          63.3341   90.3098   15.3956 N.1     1  UNL1       -0.1956
     24 C          63.3733   90.2504   13.8973 C.1     1  UNL1        0.0752
     25 C          63.7118   85.3303   14.2111 C.3     1  UNL1        0.0581
     26 C          64.7674   84.2815   14.0212 C.3     1  UNL1        0.1440
     27 O          66.1685   84.5333   14.4937 O.3     1  UNL1       -0.3816
     28 H          66.2207   85.4146   14.8957 H       1  UNL1        0.2105
     29 C          64.4217   82.9809   13.3586 C.3     1  UNL1        0.1666
     30 O          65.0222   82.6338   12.0287 O.3     1  UNL1       -0.3795
     31 H          64.6954   83.2509   11.3554 H       1  UNL1        0.2105
@<TRIPOS>BOND
     1    23    24    3
     2    24    20    1
     3    20     1    1
     4     1     2   ar
     5     2     3   ar
     6     3    25    1
     7    25    26    1
     8    26    27    1
     9    26    29    1
    10    29    30    1
    11     3     4   ar
    12     4     5   ar
    13     5     7    1
    14     7     8    2
    15     8     9    1
    16     9    10    2
    17    10    11    1
    18    11    12    2
    19    12    13    1
    20    13    14    2
    21    14    16    1
    22    16    17    1
    23    16    18    1
    24    16    19    1
    25    14    15    1
    26     5     6   ar
    27    20    21    1
    28    21    22    1
    29    22    20    1
    30     6     1   ar
    31    15     7    1
    32    15    11    1
    33    27    28    1
    34    30    31    1
@<TRIPOS>MOLECULE
*****
 31 34 0 0 0
SMALL
GASTEIGER

@<TRIPOS>ATOM
      1 C          65.3494   90.9988   14.0322 C.ar    1  UNL1       -0.0100
      2 C          64.4831   91.4162   12.8810 C.ar    1  UNL1       -0.0075
      3 C          63.4825   90.4563   12.3088 C.ar    1  UNL1       -0.0200
      4 C          63.3483   89.0791   12.8877 C.ar    1  UNL1       -0.0045
      5 C          64.2146   88.6617   14.0388 C.ar    1  UNL1       -0.0035
      6 C          65.2152   89.6215   14.6111 C.ar    1  UNL1       -0.0036
      7 C          64.0804   87.2844   14.6178 C.2     1  UNL1       -0.0011
      8 C          64.5438   86.0927   13.8334 C.2     1  UNL1        0.0472
      9 C          64.4096   84.7155   14.4122 C.2     1  UNL1        0.2354
     10 N          63.8119   84.5299   15.7754 N.2     1  UNL1       -0.0320
     11 C          63.3485   85.7215   16.5598 C.2     1  UNL1        0.3872
     12 N          62.7244   85.8483   17.9180 N.2     1  UNL1        0.0820
     13 N          62.4730   87.3039   18.1784 N.2     1  UNL1       -0.0337
     14 C          62.9416   88.0768   16.9813 C.2     1  UNL1        0.1921
     15 C          63.4828   87.0988   15.9810 C.3     1  UNL1        0.1845
     16 C          62.8800   89.5661   16.8139 C.3     1  UNL1        0.4355
     17 F          62.8183   91.0555   16.6465 F       1  UNL1       -0.1645
     18 F          61.6968   89.4149   15.9045 F       1  UNL1       -0.1645
     19 F          63.8999   90.0225   17.5716 F       1  UNL1       -0.1645
     20 C          66.3500   91.9587   14.6044 C.3     1  UNL1        0.0980
     21 C          66.9849   92.9376   15.5471 C.3     1  UNL1        0.0196
     22 C          65.6443   92.3469   15.8699 C.3     1  UNL1        0.0196
     23 N          68.4564   91.8490   12.4710 N.1     1  UNL1       -0.1956
     24 C          67.4032   91.9039   13.5378 C.1     1  UNL1        0.0752
     25 C          62.6161   90.8737   11.1576 C.3     1  UNL1        0.0581
     26 C          61.4333   90.0377   10.7674 C.3     1  UNL1        0.1440
     27 O          61.5065   89.1526    9.5586 O.3     1  UNL1       -0.3816
     28 H          62.3807   89.2387    9.1473 H       1  UNL1        0.2105
     29 C          60.1773   90.0869   11.5860 C.3     1  UNL1        0.1666
     30 O          59.2667   91.2751   11.4917 O.3     1  UNL1       -0.3795
     31 H          59.7195   92.0581   11.8420 H       1  UNL1        0.2105
@<TRIPOS>BOND
     1    23    24    3
     2    24    20    1
     3    20     1    1
     4     1     2   ar
     5     2     3   ar
     6     3    25    1
     7    25    26    1
     8    26    27    1
     9    26    29    1
    10    29    30    1
    11     3     4   ar
    12     4     5   ar
    13     5     7    1
    14     7     8    2
    15     8     9    1
    16     9    10    2
    17    10    11    1
    18    11    12    2
    19    12    13    1
    20    13    14    2
    21    14    16    1
    22    16    17    1
    23    16    18    1
    24    16    19    1
    25    14    15    1
    26     5     6   ar
    27    20    21    1
    28    21    22    1
    29    22    20    1
    30     6     1   ar
    31    15     7    1
    32    15    11    1
    33    27    28    1
    34    30    31    1
@<TRIPOS>MOLECULE
*****
 31 34 0 0 0
SMALL
GASTEIGER

@<TRIPOS>ATOM
      1 C          62.5494   89.3281   11.3423 C.ar    1  UNL1       -0.0100
      2 C          61.2567   89.2272   10.5881 C.ar    1  UNL1       -0.0075
      3 C          60.5741   87.8992   10.4441 C.ar    1  UNL1       -0.0200
      4 C          61.1843   86.6722   11.0543 C.ar    1  UNL1       -0.0045
      5 C          62.4770   86.7732   11.8084 C.ar    1  UNL1       -0.0035
      6 C          63.1595   88.1011   11.9524 C.ar    1  UNL1       -0.0036
      7 C          63.0872   85.5462   12.4186 C.2     1  UNL1       -0.0011
      8 C          63.2889   85.4677   13.9029 C.2     1  UNL1        0.0472
      9 C          63.8990   84.2408   14.5130 C.2     1  UNL1        0.2354
     10 N          64.3074   83.0923   13.6389 N.2     1  UNL1       -0.0320
     11 C          64.1056   83.1708   12.1546 C.2     1  UNL1        0.3872
     12 N          64.4077   82.2040   11.0481 N.2     1  UNL1        0.0820
     13 N          63.9842   82.8335    9.7541 N.2     1  UNL1       -0.0337
     14 C          63.4204   84.1893   10.0609 C.2     1  UNL1        0.1921
     15 C          63.4955   84.3977   11.5444 C.3     1  UNL1        0.1845
     16 C          62.8770   85.1653    9.0598 C.3     1  UNL1        0.4355
     17 F          62.3335   86.1413    8.0588 F       1  UNL1       -0.1645
     18 F          61.4791   84.7674    9.4308 F       1  UNL1       -0.1645
     19 F          63.9794   85.7253    8.5179 F       1  UNL1       -0.1645
     20 C          63.2319   90.6560   11.4863 C.3     1  UNL1        0.0980
     21 C          63.8736   91.9590   11.1116 C.3     1  UNL1        0.0196
     22 C          63.3514   91.0454   10.0426 C.3     1  UNL1        0.0196
     23 N          63.4670   90.7997   14.4737 N.1     1  UNL1       -0.1956
     24 C          63.3494   90.7279   12.9799 C.1     1  UNL1        0.0752
     25 C          59.2815   87.7982    9.6900 C.3     1  UNL1        0.0581
     26 C          59.2939   87.6257    8.1999 C.3     1  UNL1        0.1440
     27 O          59.0026   86.2831    7.5979 O.3     1  UNL1       -0.3816
     28 H          58.8285   85.6425    8.3051 H       1  UNL1        0.2105
     29 C          59.5978   88.7959    7.3120 C.3     1  UNL1        0.1666
     30 O          58.5771   89.2697    6.3202 O.3     1  UNL1       -0.3795
     31 H          58.4396   88.5859    5.6461 H       1  UNL1        0.2105
@<TRIPOS>BOND
     1    23    24    3
     2    24    20    1
     3    20     1    1
     4     1     2   ar
     5     2     3   ar
     6     3    25    1
     7    25    26    1
     8    26    27    1
     9    26    29    1
    10    29    30    1
    11     3     4   ar
    12     4     5   ar
    13     5     7    1
    14     7     8    2
    15     8     9    1
    16     9    10    2
    17    10    11    1
    18    11    12    2
    19    12    13    1
    20    13    14    2
    21    14    16    1
    22    16    17    1
    23    16    18    1
    24    16    19    1
    25    14    15    1
    26     5     6   ar
    27    20    21    1
    28    21    22    1
    29    22    20    1
    30     6     1   ar
    31    15     7    1
    32    15    11    1
    33    27    28    1
    34    30    31    1
@<TRIPOS>MOLECULE
*****
 31 34 0 0 0
SMALL
GASTEIGER

@<TRIPOS>ATOM
      1 C          62.9113   89.0078   12.1228 C.ar    1  UNL1       -0.0100
      2 C          61.6633   89.1351   11.3004 C.ar    1  UNL1       -0.0075
      3 C          60.8937   87.9080   10.9105 C.ar    1  UNL1       -0.0200
      4 C          61.3721   86.5537   11.3430 C.ar    1  UNL1       -0.0045
      5 C          62.6201   86.4265   12.1653 C.ar    1  UNL1       -0.0035
      6 C          63.3897   87.6535   12.5553 C.ar    1  UNL1       -0.0036
      7 C          63.0985   85.0721   12.5978 C.2     1  UNL1       -0.0011
      8 C          63.2467   84.7599   14.0574 C.2     1  UNL1        0.0472
      9 C          63.7250   83.4056   14.4899 C.2     1  UNL1        0.2354
     10 N          64.0551   82.3635   13.4627 N.2     1  UNL1       -0.0320
     11 C          63.9069   82.6758   12.0031 C.2     1  UNL1        0.3872
     12 N          64.1547   81.8564   10.7712 N.2     1  UNL1        0.0820
     13 N          63.8294   82.7044    9.5774 N.2     1  UNL1       -0.0337
     14 C          63.3807   84.0478   10.0715 C.2     1  UNL1        0.1921
     15 C          63.4286   84.0301   11.5706 C.3     1  UNL1        0.1845
     16 C          62.9582   85.2056    9.2166 C.3     1  UNL1        0.4355
     17 F          62.5356   86.3634    8.3616 F       1  UNL1       -0.1645
     18 F          61.5227   84.9308    9.5538 F       1  UNL1       -0.1645
     19 F          64.1197   85.6977    8.7358 F       1  UNL1       -0.1645
     20 C          63.6810   90.2348   12.5127 C.3     1  UNL1        0.0980
     21 C          64.4965   91.1834   13.3405 C.3     1  UNL1        0.0196
     22 C          64.0804   89.8590   13.9089 C.3     1  UNL1        0.0196
     23 N          63.4167   91.8388    9.9913 N.1     1  UNL1       -0.1956
     24 C          63.5488   91.0368   11.2520 C.1     1  UNL1        0.0752
     25 C          59.6457   88.0352   10.0882 C.3     1  UNL1        0.0581
     26 C          59.7391   88.3862    8.6327 C.3     1  UNL1        0.1440
     27 O          60.2351   89.7397    8.2180 O.3     1  UNL1       -0.3816
     28 H          60.4508   90.2608    9.0071 H       1  UNL1        0.2105
     29 C          59.3365   87.3837    7.5922 C.3     1  UNL1        0.1666
     30 O          58.1520   86.4938    7.8267 O.3     1  UNL1       -0.3795
     31 H          58.3394   85.8942    8.5658 H       1  UNL1        0.2105
@<TRIPOS>BOND
     1    23    24    3
     2    24    20    1
     3    20     1    1
     4     1     2   ar
     5     2     3   ar
     6     3    25    1
     7    25    26    1
     8    26    27    1
     9    26    29    1
    10    29    30    1
    11     3     4   ar
    12     4     5   ar
    13     5     7    1
    14     7     8    2
    15     8     9    1
    16     9    10    2
    17    10    11    1
    18    11    12    2
    19    12    13    1
    20    13    14    2
    21    14    16    1
    22    16    17    1
    23    16    18    1
    24    16    19    1
    25    14    15    1
    26     5     6   ar
    27    20    21    1
    28    21    22    1
    29    22    20    1
    30     6     1   ar
    31    15     7    1
    32    15    11    1
    33    27    28    1
    34    30    31    1
@<TRIPOS>MOLECULE
*****
 31 34 0 0 0
SMALL
GASTEIGER

@<TRIPOS>ATOM
      1 C          62.5858   87.9610   11.8589 C.ar    1  UNL1       -0.0100
      2 C          62.9122   86.6988   12.6007 C.ar    1  UNL1       -0.0075
      3 C          63.8712   86.7331   13.7536 C.ar    1  UNL1       -0.0200
      4 C          64.5037   88.0295   14.1648 C.ar    1  UNL1       -0.0045
      5 C          64.1772   89.2918   13.4230 C.ar    1  UNL1       -0.0035
      6 C          63.2183   89.2575   12.2701 C.ar    1  UNL1       -0.0036
      7 C          64.8098   90.5883   13.8343 C.2     1  UNL1       -0.0011
      8 C          65.6984   91.3260   12.8772 C.2     1  UNL1        0.0472
      9 C          66.3309   92.6224   13.2883 C.2     1  UNL1        0.2354
     10 N          66.0748   93.1812   14.6566 N.2     1  UNL1       -0.0320
     11 C          65.1862   92.4434   15.6137 C.2     1  UNL1        0.3872
     12 N          64.7530   92.7459   17.0176 N.2     1  UNL1        0.0820
     13 N          63.8528   91.6363   17.4741 N.2     1  UNL1       -0.0337
     14 C          63.7296   90.6481   16.3523 C.2     1  UNL1        0.1921
     15 C          64.5536   91.1470   15.2025 C.3     1  UNL1        0.1845
     16 C          62.9238   89.3832   16.3761 C.3     1  UNL1        0.4355
     17 F          62.1179   88.1182   16.3999 F       1  UNL1       -0.1645
     18 F          62.0583   89.9137   15.2718 F       1  UNL1       -0.1645
     19 F          63.5040   88.6444   17.3457 F       1  UNL1       -0.1645
     20 C          61.6268   87.9268   10.7060 C.3     1  UNL1        0.0980
     21 C          61.0262   87.5550    9.3827 C.3     1  UNL1        0.0196
     22 C          62.3257   86.9429    9.8151 C.3     1  UNL1        0.0196
     23 N          59.5631   89.8708   11.6870 N.1     1  UNL1       -0.1956
     24 C          60.5950   88.8987   11.1964 C.1     1  UNL1        0.0752
     25 C          64.1976   85.4708   14.4954 C.3     1  UNL1        0.0581
     26 C          64.0179   84.1401   13.8267 C.3     1  UNL1        0.1440
     27 O          65.0393   83.6510   12.8432 O.3     1  UNL1       -0.3816
     28 H          65.7456   84.3101   12.7557 H       1  UNL1        0.2105
     29 C          62.8168   83.2987   14.1417 C.3     1  UNL1        0.1666
     30 O          62.6732   82.6742   15.4979 O.3     1  UNL1       -0.3795
     31 H          63.3721   82.0137   15.6254 H       1  UNL1        0.2105
@<TRIPOS>BOND
     1    23    24    3
     2    24    20    1
     3    20     1    1
     4     1     2   ar
     5     2     3   ar
     6     3    25    1
     7    25    26    1
     8    26    27    1
     9    26    29    1
    10    29    30    1
    11     3     4   ar
    12     4     5   ar
    13     5     7    1
    14     7     8    2
    15     8     9    1
    16     9    10    2
    17    10    11    1
    18    11    12    2
    19    12    13    1
    20    13    14    2
    21    14    16    1
    22    16    17    1
    23    16    18    1
    24    16    19    1
    25    14    15    1
    26     5     6   ar
    27    20    21    1
    28    21    22    1
    29    22    20    1
    30     6     1   ar
    31    15     7    1
    32    15    11    1
    33    27    28    1
    34    30    31    1
@<TRIPOS>MOLECULE
*****
 31 34 0 0 0
SMALL
GASTEIGER

@<TRIPOS>ATOM
      1 C          63.6577   86.8758   13.3747 C.ar    1  UNL1       -0.0100
      2 C          62.6715   86.9237   12.2455 C.ar    1  UNL1       -0.0075
      3 C          62.3614   88.2296   11.5755 C.ar    1  UNL1       -0.0200
      4 C          63.0375   89.4873   12.0348 C.ar    1  UNL1       -0.0045
      5 C          64.0237   89.4393   13.1641 C.ar    1  UNL1       -0.0035
      6 C          64.3338   88.1336   13.8340 C.ar    1  UNL1       -0.0036
      7 C          64.6997   90.6971   13.6233 C.2     1  UNL1       -0.0011
      8 C          65.5520   91.4815   12.6702 C.2     1  UNL1        0.0472
      9 C          66.2281   92.7392   13.1294 C.2     1  UNL1        0.2354
     10 N          66.0519   93.2127   14.5418 N.2     1  UNL1       -0.0320
     11 C          65.1996   92.4283   15.4949 C.2     1  UNL1        0.3872
     12 N          64.8438   92.6464   16.9358 N.2     1  UNL1        0.0820
     13 N          63.9479   91.5233   17.3670 N.2     1  UNL1       -0.0337
     14 C          63.7499   90.6112   16.1927 C.2     1  UNL1        0.1921
     15 C          64.5235   91.1706   15.0357 C.3     1  UNL1        0.1845
     16 C          62.9235   89.3595   16.1779 C.3     1  UNL1        0.4355
     17 F          62.0969   88.1078   16.1632 F       1  UNL1       -0.1645
     18 F          62.0385   89.9563   15.1241 F       1  UNL1       -0.1645
     19 F          63.5163   88.5658   17.0950 F       1  UNL1       -0.1645
     20 C          63.9678   85.5700   14.0447 C.3     1  UNL1        0.0980
     21 C          64.4773   84.5950   15.0643 C.3     1  UNL1        0.0196
     22 C          64.6496   86.0688   15.2842 C.3     1  UNL1        0.0196
     23 N          62.8195   83.6656   12.0311 N.1     1  UNL1       -0.1956
     24 C          63.3937   84.6179   13.0379 C.1     1  UNL1        0.0752
     25 C          61.3753   88.2776   10.4463 C.3     1  UNL1        0.0581
     26 C          60.4045   89.4168   10.3462 C.3     1  UNL1        0.1440
     27 O          60.1785   90.0959    9.0280 O.3     1  UNL1       -0.3816
     28 H          60.7336   89.6793    8.3503 H       1  UNL1        0.2105
     29 C          59.6599   89.8768   11.5644 C.3     1  UNL1        0.1666
     30 O          59.0862   91.2618   11.6141 O.3     1  UNL1       -0.3795
     31 H          59.8072   91.9108   11.6099 H       1  UNL1        0.2105
@<TRIPOS>BOND
     1    23    24    3
     2    24    20    1
     3    20     1    1
     4     1     2   ar
     5     2     3   ar
     6     3    25    1
     7    25    26    1
     8    26    27    1
     9    26    29    1
    10    29    30    1
    11     3     4   ar
    12     4     5   ar
    13     5     7    1
    14     7     8    2
    15     8     9    1
    16     9    10    2
    17    10    11    1
    18    11    12    2
    19    12    13    1
    20    13    14    2
    21    14    16    1
    22    16    17    1
    23    16    18    1
    24    16    19    1
    25    14    15    1
    26     5     6   ar
    27    20    21    1
    28    21    22    1
    29    22    20    1
    30     6     1   ar
    31    15     7    1
    32    15    11    1
    33    27    28    1
    34    30    31    1
@<TRIPOS>MOLECULE
*****
 31 34 0 0 0
SMALL
GASTEIGER

@<TRIPOS>ATOM
      1 C          63.1330   88.0874   12.3488 C.ar    1  UNL1       -0.0100
      2 C          63.5394   86.8158   13.0328 C.ar    1  UNL1       -0.0075
      3 C          63.0389   85.4968   12.5228 C.ar    1  UNL1       -0.0200
      4 C          62.1321   85.4496   11.3290 C.ar    1  UNL1       -0.0045
      5 C          61.7257   86.7212   10.6450 C.ar    1  UNL1       -0.0035
      6 C          62.2262   88.0401   11.1549 C.ar    1  UNL1       -0.0036
      7 C          60.8189   86.6739    9.4510 C.2     1  UNL1       -0.0011
      8 C          59.5518   87.4766    9.4394 C.2     1  UNL1        0.0472
      9 C          58.6449   87.4293    8.2455 C.2     1  UNL1        0.2354
     10 N          59.0052   86.5793    7.0633 N.2     1  UNL1       -0.0320
     11 C          60.2723   85.7766    7.0749 C.2     1  UNL1        0.3872
     12 N          60.8856   84.8544    6.0632 N.2     1  UNL1        0.0820
     13 N          62.1715   84.3319    6.6318 N.2     1  UNL1       -0.0337
     14 C          62.3529   84.9310    7.9949 C.2     1  UNL1        0.1921
     15 C          61.1791   85.8239    8.2688 C.3     1  UNL1        0.1845
     16 C          63.5057   84.6811    8.9216 C.3     1  UNL1        0.4355
     17 F          64.6585   84.4313    9.8482 F       1  UNL1       -0.1645
     18 F          64.0515   86.0431    8.6098 F       1  UNL1       -0.1645
     19 F          63.2801   83.4374    9.3956 F       1  UNL1       -0.1645
     20 C          63.6335   89.4063   12.8587 C.3     1  UNL1        0.0980
     21 C          64.2813   90.4150   13.7603 C.3     1  UNL1        0.0196
     22 C          64.2315   88.9711   14.1637 C.3     1  UNL1        0.0196
     23 N          62.7851   91.1929   10.6029 N.1     1  UNL1       -0.1956
     24 C          63.2093   90.2996   11.7309 C.1     1  UNL1        0.0752
     25 C          63.4453   84.2252   13.2068 C.3     1  UNL1        0.0581
     26 C          62.6151   83.6798   14.3309 C.3     1  UNL1        0.1440
     27 O          61.8419   84.6139   15.2139 O.3     1  UNL1       -0.3816
     28 H          61.9875   85.5279   14.9237 H       1  UNL1        0.2105
     29 C          62.5581   82.2004   14.5719 C.3     1  UNL1        0.1666
     30 O          61.2452   81.4787   14.4995 O.3     1  UNL1       -0.3795
     31 H          60.6692   81.7826   15.2183 H       1  UNL1        0.2105
@<TRIPOS>BOND
     1    23    24    3
     2    24    20    1
     3    20     1    1
     4     1     2   ar
     5     2     3   ar
     6     3    25    1
     7    25    26    1
     8    26    27    1
     9    26    29    1
    10    29    30    1
    11     3     4   ar
    12     4     5   ar
    13     5     7    1
    14     7     8    2
    15     8     9    1
    16     9    10    2
    17    10    11    1
    18    11    12    2
    19    12    13    1
    20    13    14    2
    21    14    16    1
    22    16    17    1
    23    16    18    1
    24    16    19    1
    25    14    15    1
    26     5     6   ar
    27    20    21    1
    28    21    22    1
    29    22    20    1
    30     6     1   ar
    31    15     7    1
    32    15    11    1
    33    27    28    1
    34    30    31    1
@<TRIPOS>MOLECULE
*****
 31 34 0 0 0
SMALL
GASTEIGER

@<TRIPOS>ATOM
      1 C          62.7060   85.4863   10.8695 C.ar    1  UNL1       -0.0100
      2 C          63.3046   84.1254   11.0681 C.ar    1  UNL1       -0.0075
      3 C          63.9970   83.7912   12.3561 C.ar    1  UNL1       -0.0200
      4 C          64.0907   84.8180   13.4455 C.ar    1  UNL1       -0.0045
      5 C          63.4921   86.1790   13.2469 C.ar    1  UNL1       -0.0035
      6 C          62.7998   86.5132   11.9590 C.ar    1  UNL1       -0.0036
      7 C          63.5859   87.2058   14.3364 C.2     1  UNL1       -0.0011
      8 C          64.1264   88.5722   14.0348 C.2     1  UNL1        0.0472
      9 C          64.2202   89.5990   15.1242 C.2     1  UNL1        0.2354
     10 N          63.7734   89.2595   16.5152 N.2     1  UNL1       -0.0320
     11 C          63.2328   87.8932   16.8169 C.2     1  UNL1        0.3872
     12 N          62.7196   87.2738   18.0831 N.2     1  UNL1        0.0820
     13 N          62.3087   85.8643   17.7762 N.2     1  UNL1       -0.0337
     14 C          62.5679   85.6124   16.3203 C.2     1  UNL1        0.1921
     15 C          63.1391   86.8663   15.7275 C.3     1  UNL1        0.1845
     16 C          62.3026   84.3315   15.5862 C.3     1  UNL1        0.4355
     17 F          62.0373   83.0506   14.8521 F       1  UNL1       -0.1645
     18 F          63.5820   83.7599   16.1213 F       1  UNL1       -0.1645
     19 F          61.1276   84.5518   14.9591 F       1  UNL1       -0.1645
     20 C          62.0137   85.8205    9.5815 C.3     1  UNL1        0.0980
     21 C          61.6841   85.8245    8.1181 C.3     1  UNL1        0.0196
     22 C          62.8180   84.9859    8.6293 C.3     1  UNL1        0.0196
     23 N          59.9240   87.7215   10.5912 N.1     1  UNL1       -0.1956
     24 C          60.9689   86.7710   10.0863 C.1     1  UNL1        0.0752
     25 C          64.5956   82.4303   12.5547 C.3     1  UNL1        0.0581
     26 C          63.7286   81.2856   12.9884 C.3     1  UNL1        0.1440
     27 O          63.8304   80.7558   14.3880 O.3     1  UNL1       -0.3816
     28 H          64.4986   81.2610   14.8771 H       1  UNL1        0.2105
     29 C          62.7598   80.6706   12.0223 C.3     1  UNL1        0.1666
     30 O          63.0406   80.7127   10.5495 O.3     1  UNL1       -0.3795
     31 H          63.0152   81.6321   10.2416 H       1  UNL1        0.2105
@<TRIPOS>BOND
     1    23    24    3
     2    24    20    1
     3    20     1    1
     4     1     2   ar
     5     2     3   ar
     6     3    25    1
     7    25    26    1
     8    26    27    1
     9    26    29    1
    10    29    30    1
    11     3     4   ar
    12     4     5   ar
    13     5     7    1
    14     7     8    2
    15     8     9    1
    16     9    10    2
    17    10    11    1
    18    11    12    2
    19    12    13    1
    20    13    14    2
    21    14    16    1
    22    16    17    1
    23    16    18    1
    24    16    19    1
    25    14    15    1
    26     5     6   ar
    27    20    21    1
    28    21    22    1
    29    22    20    1
    30     6     1   ar
    31    15     7    1
    32    15    11    1
    33    27    28    1
    34    30    31    1
