@<TRIPOS>MOLECULE
*****
 33 37 0 0 0
SMALL
GASTEIGER

@<TRIPOS>ATOM
      1 C          64.2333   89.6474   14.1132 C.ar    1  UNL1        0.1830
      2 N          64.0083   88.2944   13.5059 N.ar    1  UNL1       -0.2078
      3 C          63.5301   87.3737   14.5893 C.ar    1  UNL1        0.1693
      4 N          63.4596   88.1577   15.8662 N.ar    1  UNL1       -0.2313
      5 N          63.8942   89.5629   15.5719 N.ar    1  UNL1       -0.1486
      6 C          63.0088   87.4907   17.1318 C.3     1  UNL1        0.1609
      7 C          62.6285   86.0398   17.1205 C.3     1  UNL1        0.1694
      8 O          62.6990   85.2558   15.8436 O.3     1  UNL1       -0.3421
      9 C          63.1498   85.9228   14.5780 C.3     1  UNL1        0.1950
     10 C          66.2195   92.9850   13.2976 C.ar    1  UNL1        0.1548
     11 C          65.7397   91.7622   14.0218 C.ar    1  UNL1        0.0415
     12 C          64.7131   90.8702   13.3890 C.ar    1  UNL1        0.0406
     13 C          64.1665   91.2010   12.0319 C.ar    1  UNL1        0.0048
     14 C          64.6463   92.4238   11.3077 C.ar    1  UNL1        0.0207
     15 C          65.6728   93.3158   11.9405 C.ar    1  UNL1        0.0994
     16 N          66.1527   94.5386   11.2163 N.ar    1  UNL1       -0.2839
     17 C          66.1643   95.9370   11.7589 C.ar    1  UNL1        0.1826
     18 N          66.7240   96.8403   10.7002 N.ar    1  UNL1       -0.2280
     19 C          67.0582   96.0003    9.5033 C.ar    1  UNL1        0.0786
     20 C          67.6429   96.4957    8.2139 C.3     1  UNL1        0.0538
     21 C          66.7052   94.5777    9.8223 C.ar    1  UNL1        0.0963
     22 C          67.8028   93.5389   15.2817 C.3     1  UNL1        0.2525
     23 O          67.2461   93.8770   13.9305 O.3     1  UNL1       -0.4700
     24 C          63.2203   85.1389   13.3011 C.ar    1  UNL1        0.0157
     25 C          62.6218   85.6973   12.0442 C.ar    1  UNL1       -0.0016
     26 C          62.6923   84.9133   10.7673 C.ar    1  UNL1       -0.0002
     27 C          63.3614   83.5710   10.7473 C.ar    1  UNL1       -0.0001
     28 C          63.9599   83.0126   12.0043 C.ar    1  UNL1        0.0036
     29 C          63.8894   83.7965   13.2812 C.ar    1  UNL1        0.0701
     30 C          64.4879   83.2380   14.5381 C.3     1  UNL1        0.4184
     31 F          65.0864   82.6795   15.7950 F       1  UNL1       -0.1659
     32 F          65.6618   84.1598   14.3888 F       1  UNL1       -0.1659
     33 F          63.3141   82.3163   14.6875 F       1  UNL1       -0.1659
@<TRIPOS>BOND
     1    22    23    1
     2    23    10    1
     3    10    11   ar
     4    11    12   ar
     5    12     1    1
     6     1     2   ar
     7     2     3   ar
     8     3     4   ar
     9     4     5   ar
    10     4     6    1
    11     6     7    1
    12     7     8    1
    13     8     9    1
    14     9    24    1
    15    24    25   ar
    16    25    26   ar
    17    26    27   ar
    18    27    28   ar
    19    28    29   ar
    20    29    30    1
    21    30    31    1
    22    30    32    1
    23    30    33    1
    24    12    13   ar
    25    13    14   ar
    26    14    15   ar
    27    15    16    1
    28    16    17   ar
    29    17    18   ar
    30    18    19   ar
    31    19    20    1
    32    19    21   ar
    33    15    10   ar
    34    21    16   ar
    35     5     1   ar
    36    29    24   ar
    37     9     3    1
@<TRIPOS>MOLECULE
*****
 33 37 0 0 0
SMALL
GASTEIGER

@<TRIPOS>ATOM
      1 C          63.7784   87.5738   14.4692 C.ar    1  UNL1        0.1830
      2 N          64.2626   88.7492   13.6730 N.ar    1  UNL1       -0.2078
      3 C          64.2916   89.9434   14.5803 C.ar    1  UNL1        0.1693
      4 N          63.8253   89.5060   15.9372 N.ar    1  UNL1       -0.2313
      5 N          63.5081   88.0416   15.8686 N.ar    1  UNL1       -0.1486
      6 C          63.7497   90.4978   17.0600 C.3     1  UNL1        0.1609
      7 C          64.1404   91.9269   16.8258 C.3     1  UNL1        0.1694
      8 O          64.6067   92.3643   15.4689 O.3     1  UNL1       -0.3421
      9 C          64.6823   91.3725   14.3461 C.3     1  UNL1        0.1950
     10 C          62.9509   84.5507   12.0349 C.ar    1  UNL1        0.1548
     11 C          63.1328   85.9484   12.5479 C.ar    1  UNL1        0.0415
     12 C          63.5964   86.1761   13.9562 C.ar    1  UNL1        0.0406
     13 C          63.8780   85.0059   14.8514 C.ar    1  UNL1        0.0048
     14 C          63.6960   83.6082   14.3384 C.ar    1  UNL1        0.0207
     15 C          63.2325   83.3806   12.9301 C.ar    1  UNL1        0.0994
     16 N          63.0505   81.9828   12.4171 N.ar    1  UNL1       -0.2839
     17 C          62.7538   80.7701   13.2485 C.ar    1  UNL1        0.1826
     18 N          62.6532   79.5902   12.3278 N.ar    1  UNL1       -0.2280
     19 C          62.8877   80.0737   10.9273 C.ar    1  UNL1        0.0786
     20 C          62.8783   79.2271    9.6891 C.3     1  UNL1        0.0538
     21 C          63.1332   81.5524   10.9825 C.ar    1  UNL1        0.0963
     22 C          62.3776   85.4791    9.6770 C.3     1  UNL1        0.2525
     23 O          62.4873   84.3231   10.6265 O.3     1  UNL1       -0.4700
     24 C          65.1486   91.8099   12.9892 C.ar    1  UNL1        0.0157
     25 C          64.2575   91.6304   11.7960 C.ar    1  UNL1       -0.0016
     26 C          64.7238   92.0678   10.4391 C.ar    1  UNL1       -0.0002
     27 C          66.0812   92.6846   10.2753 C.ar    1  UNL1       -0.0001
     28 C          66.9723   92.8641   11.4684 C.ar    1  UNL1        0.0036
     29 C          66.5060   92.4267   12.8254 C.ar    1  UNL1        0.0701
     30 C          67.3972   92.6062   14.0186 C.3     1  UNL1        0.4184
     31 F          68.2884   92.7857   15.2117 F       1  UNL1       -0.1659
     32 F          67.9576   91.2310   13.8070 F       1  UNL1       -0.1659
     33 F          66.8369   93.9814   14.2301 F       1  UNL1       -0.1659
@<TRIPOS>BOND
     1    22    23    1
     2    23    10    1
     3    10    11   ar
     4    11    12   ar
     5    12     1    1
     6     1     2   ar
     7     2     3   ar
     8     3     4   ar
     9     4     5   ar
    10     4     6    1
    11     6     7    1
    12     7     8    1
    13     8     9    1
    14     9    24    1
    15    24    25   ar
    16    25    26   ar
    17    26    27   ar
    18    27    28   ar
    19    28    29   ar
    20    29    30    1
    21    30    31    1
    22    30    32    1
    23    30    33    1
    24    12    13   ar
    25    13    14   ar
    26    14    15   ar
    27    15    16    1
    28    16    17   ar
    29    17    18   ar
    30    18    19   ar
    31    19    20    1
    32    19    21   ar
    33    15    10   ar
    34    21    16   ar
    35     5     1   ar
    36    29    24   ar
    37     9     3    1
@<TRIPOS>MOLECULE
*****
 33 37 0 0 0
SMALL
GASTEIGER

@<TRIPOS>ATOM
      1 C          64.2369   89.1782   14.0878 C.ar    1  UNL1        0.1830
      2 N          64.1913   87.7997   13.4980 N.ar    1  UNL1       -0.2078
      3 C          63.6618   86.8649   14.5447 C.ar    1  UNL1        0.1693
      4 N          63.3802   87.6656   15.7815 N.ar    1  UNL1       -0.2313
      5 N          63.7357   89.0952   15.4991 N.ar    1  UNL1       -0.1486
      6 C          62.8365   86.9894   17.0051 C.3     1  UNL1        0.1609
      7 C          62.5744   85.5126   16.9919 C.3     1  UNL1        0.1694
      8 O          62.8560   84.7119   15.7551 O.3     1  UNL1       -0.3421
      9 C          63.3997   85.3881   14.5315 C.3     1  UNL1        0.1950
     10 C          66.3417   92.4298   13.2239 C.ar    1  UNL1        0.1548
     11 C          65.8765   91.1868   13.9227 C.ar    1  UNL1        0.0415
     12 C          64.7022   90.4212   13.3889 C.ar    1  UNL1        0.0406
     13 C          63.9932   90.8987   12.1564 C.ar    1  UNL1        0.0048
     14 C          64.4584   92.1418   11.4576 C.ar    1  UNL1        0.0207
     15 C          65.6327   92.9073   11.9913 C.ar    1  UNL1        0.0994
     16 N          66.0979   94.1504   11.2925 N.ar    1  UNL1       -0.2839
     17 C          66.1203   95.5329   11.8741 C.ar    1  UNL1        0.1826
     18 N          66.6587   96.4662   10.8304 N.ar    1  UNL1       -0.2280
     19 C          66.9691   95.6605    9.6038 C.ar    1  UNL1        0.0786
     20 C          67.5279   96.1925    8.3175 C.3     1  UNL1        0.0538
     21 C          66.6225   94.2293    9.8894 C.ar    1  UNL1        0.0963
     22 C          67.6288   93.4664   15.2286 C.3     1  UNL1        0.2525
     23 O          67.5161   93.1954   13.7577 O.3     1  UNL1       -0.4700
     24 C          63.6813   84.5874   13.2948 C.ar    1  UNL1        0.0157
     25 C          64.6912   83.4791   13.3326 C.ar    1  UNL1       -0.0016
     26 C          64.9728   82.6784   12.0958 C.ar    1  UNL1       -0.0002
     27 C          64.2445   82.9861   10.8212 C.ar    1  UNL1       -0.0001
     28 C          63.2345   84.0944   10.7833 C.ar    1  UNL1        0.0036
     29 C          62.9529   84.8951   12.0201 C.ar    1  UNL1        0.0701
     30 C          61.9429   86.0035   11.9822 C.3     1  UNL1        0.4184
     31 F          60.9329   87.1118   11.9443 F       1  UNL1       -0.1659
     32 F          62.7323   86.6861   10.9048 F       1  UNL1       -0.1659
     33 F          61.1535   85.3209   13.0596 F       1  UNL1       -0.1659
@<TRIPOS>BOND
     1    22    23    1
     2    23    10    1
     3    10    11   ar
     4    11    12   ar
     5    12     1    1
     6     1     2   ar
     7     2     3   ar
     8     3     4   ar
     9     4     5   ar
    10     4     6    1
    11     6     7    1
    12     7     8    1
    13     8     9    1
    14     9    24    1
    15    24    25   ar
    16    25    26   ar
    17    26    27   ar
    18    27    28   ar
    19    28    29   ar
    20    29    30    1
    21    30    31    1
    22    30    32    1
    23    30    33    1
    24    12    13   ar
    25    13    14   ar
    26    14    15   ar
    27    15    16    1
    28    16    17   ar
    29    17    18   ar
    30    18    19   ar
    31    19    20    1
    32    19    21   ar
    33    15    10   ar
    34    21    16   ar
    35     5     1   ar
    36    29    24   ar
    37     9     3    1
@<TRIPOS>MOLECULE
*****
 33 37 0 0 0
SMALL
GASTEIGER

@<TRIPOS>ATOM
      1 C          64.2159   89.4099   14.3441 C.ar    1  UNL1        0.1830
      2 N          63.9728   88.0606   13.7356 N.ar    1  UNL1       -0.2078
      3 C          63.4893   87.1435   14.8196 C.ar    1  UNL1        0.1693
      4 N          63.4336   87.9260   16.0981 N.ar    1  UNL1       -0.2313
      5 N          63.8827   89.3267   15.8042 N.ar    1  UNL1       -0.1486
      6 C          62.9812   87.2620   17.3648 C.3     1  UNL1        0.1609
      7 C          62.5845   85.8155   17.3529 C.3     1  UNL1        0.1694
      8 O          62.6402   85.0330   16.0744 O.3     1  UNL1       -0.3421
      9 C          63.0926   85.6970   14.8077 C.3     1  UNL1        0.1950
     10 C          64.6646   92.1733   11.5312 C.ar    1  UNL1        0.1548
     11 C          64.1743   90.9548   12.2556 C.ar    1  UNL1        0.0415
     12 C          64.7062   90.6284   13.6196 C.ar    1  UNL1        0.0406
     13 C          65.7284   91.5206   14.2592 C.ar    1  UNL1        0.0048
     14 C          66.2187   92.7392   13.5347 C.ar    1  UNL1        0.0207
     15 C          65.6868   93.0655   12.1707 C.ar    1  UNL1        0.0994
     16 N          66.1770   94.2840   11.4463 N.ar    1  UNL1       -0.2839
     17 C          66.1867   95.6846   11.9831 C.ar    1  UNL1        0.1826
     18 N          66.7594   96.5821   10.9264 N.ar    1  UNL1       -0.2280
     19 C          67.1036   95.7362    9.7365 C.ar    1  UNL1        0.0786
     20 C          67.7026   96.2247    8.4510 C.3     1  UNL1        0.0538
     21 C          66.7437   94.3159   10.0578 C.ar    1  UNL1        0.0963
     22 C          63.0674   91.6409    9.5524 C.3     1  UNL1        0.2525
     23 O          64.1326   92.4996   10.1671 O.3     1  UNL1       -0.4700
     24 C          63.1483   84.9145   13.5292 C.ar    1  UNL1        0.0157
     25 C          62.5435   85.4785   12.2778 C.ar    1  UNL1       -0.0016
     26 C          62.5992   84.6959   10.9993 C.ar    1  UNL1       -0.0002
     27 C          63.2596   83.3495   10.9722 C.ar    1  UNL1       -0.0001
     28 C          63.8644   82.7855   12.2237 C.ar    1  UNL1        0.0036
     29 C          63.8087   83.5680   13.5022 C.ar    1  UNL1        0.0701
     30 C          64.4135   83.0040   14.7537 C.3     1  UNL1        0.4184
     31 F          65.0183   82.4400   16.0051 F       1  UNL1       -0.1659
     32 F          63.2180   82.1156   14.9311 F       1  UNL1       -0.1659
     33 F          65.6090   83.8924   14.5763 F       1  UNL1       -0.1659
@<TRIPOS>BOND
     1    22    23    1
     2    23    10    1
     3    10    11   ar
     4    11    12   ar
     5    12     1    1
     6     1     2   ar
     7     2     3   ar
     8     3     4   ar
     9     4     5   ar
    10     4     6    1
    11     6     7    1
    12     7     8    1
    13     8     9    1
    14     9    24    1
    15    24    25   ar
    16    25    26   ar
    17    26    27   ar
    18    27    28   ar
    19    28    29   ar
    20    29    30    1
    21    30    31    1
    22    30    32    1
    23    30    33    1
    24    12    13   ar
    25    13    14   ar
    26    14    15   ar
    27    15    16    1
    28    16    17   ar
    29    17    18   ar
    30    18    19   ar
    31    19    20    1
    32    19    21   ar
    33    15    10   ar
    34    21    16   ar
    35     5     1   ar
    36    29    24   ar
    37     9     3    1
@<TRIPOS>MOLECULE
*****
 33 37 0 0 0
SMALL
GASTEIGER

@<TRIPOS>ATOM
      1 C          62.3552   86.9511   11.6829 C.ar    1  UNL1        0.1830
      2 N          62.2805   85.4976   12.0460 N.ar    1  UNL1       -0.2078
      3 C          63.1531   85.2740   13.2455 C.ar    1  UNL1        0.1693
      4 N          63.7670   86.5893   13.6237 N.ar    1  UNL1       -0.2313
      5 N          63.2739   87.6258   12.6579 N.ar    1  UNL1       -0.1486
      6 C          64.6957   86.6733   14.7986 C.3     1  UNL1        0.1609
      7 C          65.0105   85.4420   15.5952 C.3     1  UNL1        0.1694
      8 O          64.3965   84.1267   15.2170 O.3     1  UNL1       -0.3421
      9 C          63.4678   84.0427   14.0421 C.3     1  UNL1        0.1950
     10 C          60.3514   87.4461    8.2932 C.ar    1  UNL1        0.1548
     11 C          61.0694   86.7837    9.4315 C.ar    1  UNL1        0.0415
     12 C          61.6373   87.6135   10.5446 C.ar    1  UNL1        0.0406
     13 C          61.4872   89.1057   10.5193 C.ar    1  UNL1        0.0048
     14 C          60.7693   89.7682    9.3810 C.ar    1  UNL1        0.0207
     15 C          60.2014   88.9384    8.2679 C.ar    1  UNL1        0.0994
     16 N          59.4834   89.6008    7.1296 N.ar    1  UNL1       -0.2839
     17 C          58.0483   89.3876    6.7488 C.ar    1  UNL1        0.1826
     18 N          57.7525   90.2478    5.5561 N.ar    1  UNL1       -0.2280
     19 C          59.0048   90.9926    5.1997 C.ar    1  UNL1        0.0786
     20 C          59.1600   91.9663    4.0694 C.3     1  UNL1        0.0538
     21 C          60.0745   90.5928    6.1722 C.ar    1  UNL1        0.0963
     22 C          60.3365   85.2490    6.9067 C.3     1  UNL1        0.2525
     23 O          59.7835   86.6162    7.1802 O.3     1  UNL1       -0.4700
     24 C          62.8539   82.7274   13.6639 C.ar    1  UNL1        0.0157
     25 C          61.8442   82.0836   14.5672 C.ar    1  UNL1       -0.0016
     26 C          61.2303   80.7683   14.1890 C.ar    1  UNL1       -0.0002
     27 C          61.6260   80.0968   12.9075 C.ar    1  UNL1       -0.0001
     28 C          62.6357   80.7406   12.0041 C.ar    1  UNL1        0.0036
     29 C          63.2497   82.0559   12.3824 C.ar    1  UNL1        0.0701
     30 C          64.2594   82.6997   11.4790 C.3     1  UNL1        0.4184
     31 F          65.2691   83.3434   10.5756 F       1  UNL1       -0.1659
     32 F          65.3647   82.2198   12.3723 F       1  UNL1       -0.1659
     33 F          63.1542   83.1795   10.5856 F       1  UNL1       -0.1659
@<TRIPOS>BOND
     1    22    23    1
     2    23    10    1
     3    10    11   ar
     4    11    12   ar
     5    12     1    1
     6     1     2   ar
     7     2     3   ar
     8     3     4   ar
     9     4     5   ar
    10     4     6    1
    11     6     7    1
    12     7     8    1
    13     8     9    1
    14     9    24    1
    15    24    25   ar
    16    25    26   ar
    17    26    27   ar
    18    27    28   ar
    19    28    29   ar
    20    29    30    1
    21    30    31    1
    22    30    32    1
    23    30    33    1
    24    12    13   ar
    25    13    14   ar
    26    14    15   ar
    27    15    16    1
    28    16    17   ar
    29    17    18   ar
    30    18    19   ar
    31    19    20    1
    32    19    21   ar
    33    15    10   ar
    34    21    16   ar
    35     5     1   ar
    36    29    24   ar
    37     9     3    1
