@<TRIPOS>MOLECULE
*****
 29 33 0 0 0
SMALL
GASTEIGER

@<TRIPOS>ATOM
      1 C          64.0670   84.3518   14.2723 C.3     1  UNL1        0.0000
      2 C          63.2724   83.7714   13.1402 C.3     1  UNL1        0.0009
      3 C          63.8536   82.8694   14.1883 C.3     1  UNL1        0.0078
      4 C          63.6401   81.3871   14.1044 C.3     1  UNL1        0.0645
      5 C          62.8456   80.8067   12.9722 C.2     1  UNL1        0.1506
      6 O          62.6322   79.3243   12.8882 O.2     1  UNL1       -0.2961
      7 C          62.2644   81.7087   11.9240 C.3     1  UNL1        0.0645
      8 C          62.4778   83.1910   12.0080 C.3     1  UNL1        0.0073
      9 C          61.8967   84.0930   10.9598 C.3     1  UNL1        0.0005
     10 C          62.1101   85.5754   11.0438 C.3     1  UNL1        0.0023
     11 C          62.9047   86.1557   12.1760 C.3     1  UNL1        0.0247
     12 C          63.4858   85.2538   13.2241 C.3     1  UNL1        0.0023
     13 C          64.2804   85.8342   14.3563 C.3     1  UNL1        0.0002
     14 C          64.4938   87.3165   14.4403 C.3     1  UNL1        0.0026
     15 C          63.9126   88.2186   13.3921 C.3     1  UNL1        0.0264
     16 C          64.6807   88.9396   14.4599 C.3     1  UNL1        0.0027
     17 C          63.9562   89.7070   13.2125 C.3     1  UNL1        0.0277
     18 C          63.1886   90.0467   11.9694 C.3     1  UNL1        0.0069
     19 C          62.6706   88.7680   11.3807 C.3     1  UNL1        0.0273
     20 C          63.1181   87.6382   12.2599 C.3     1  UNL1        0.0884
     21 O          62.3057   87.2048   11.0758 O.3     1  UNL1       -0.3867
     22 H          62.2087   86.2397   11.0860 H       1  UNL1        0.2102
     23 C          64.6463   90.6845   14.1172 C.ar    1  UNL1        0.0155
     24 C          65.9860   91.2418   13.7369 C.ar    1  UNL1        0.0055
     25 C          66.6760   92.2193   14.6417 C.ar    1  UNL1        0.0821
     26 C          66.0263   92.6393   15.9267 C.ar    1  UNL1        0.3460
     27 O          66.7163   93.6168   16.8315 O.2     1  UNL1       -0.2445
     28 O          64.6866   92.0820   16.3070 O.2     1  UNL1       -0.4182
     29 C          63.9966   91.1046   15.4023 C.ar    1  UNL1        0.1787
@<TRIPOS>BOND
     1     2     1    1
     2     2     3    1
     3     3     4    1
     4     4     5    1
     5     5     6    2
     6     5     7    1
     7     8     7    1
     8     8     9    1
     9     9    10    1
    10    11    10    1
    11    11    12    1
    12    12    13    1
    13    13    14    1
    14    14    15    1
    15    15    16    1
    16    15    17    1
    17    17    23    1
    18    23    24   ar
    19    24    25   ar
    20    25    26   ar
    21    26    27    2
    22    26    28   ar
    23    28    29   ar
    24    17    18    1
    25    18    19    1
    26    19    20    1
    27    20    21    1
    28     8     2    1
    29    20    11    1
    30    12     2    1
    31    20    15    1
    32    29    23   ar
    33    21    22    1
@<TRIPOS>MOLECULE
*****
 29 33 0 0 0
SMALL
GASTEIGER

@<TRIPOS>ATOM
      1 C          64.0947   84.1500   13.8606 C.3     1  UNL1        0.0000
      2 C          63.2766   83.6159   12.7224 C.3     1  UNL1        0.0009
      3 C          63.9196   82.6698   13.6927 C.3     1  UNL1        0.0078
      4 C          63.7444   81.1896   13.5247 C.3     1  UNL1        0.0645
      5 C          62.9263   80.6555   12.3866 C.2     1  UNL1        0.1506
      6 O          62.7512   79.1752   12.2187 O.2     1  UNL1       -0.2961
      7 C          62.2833   81.6016   11.4164 C.3     1  UNL1        0.0645
      8 C          62.4585   83.0818   11.5843 C.3     1  UNL1        0.0073
      9 C          61.8155   84.0280   10.6140 C.3     1  UNL1        0.0005
     10 C          61.9906   85.5082   10.7819 C.3     1  UNL1        0.0023
     11 C          62.8087   86.0423   11.9200 C.3     1  UNL1        0.0247
     12 C          63.4517   85.0962   12.8903 C.3     1  UNL1        0.0023
     13 C          64.2699   85.6303   14.0284 C.3     1  UNL1        0.0002
     14 C          64.4450   87.1106   14.1963 C.3     1  UNL1        0.0026
     15 C          63.8020   88.0567   13.2261 C.3     1  UNL1        0.0264
     16 C          64.5875   88.7343   14.3096 C.3     1  UNL1        0.0027
     17 C          63.7979   89.5540   13.1372 C.3     1  UNL1        0.0277
     18 C          62.9773   89.9454   11.9442 C.3     1  UNL1        0.0069
     19 C          62.4742   88.6898   11.2957 C.3     1  UNL1        0.0273
     20 C          62.9839   87.5226   12.0879 C.3     1  UNL1        0.0884
     21 O          62.1420   87.1378   10.9076 O.3     1  UNL1       -0.3867
     22 H          62.0722   86.1714   10.8616 H       1  UNL1        0.2102
     23 C          64.4926   90.4950   14.0765 C.ar    1  UNL1        0.0155
     24 C          63.8254   90.9067   15.3553 C.ar    1  UNL1        0.0055
     25 C          64.5201   91.8477   16.2945 C.ar    1  UNL1        0.0821
     26 C          65.8819   92.3768   15.9549 C.ar    1  UNL1        0.3460
     27 O          66.5766   93.3177   16.8941 O.2     1  UNL1       -0.2445
     28 O          66.5491   91.9650   14.6761 O.2     1  UNL1       -0.4182
     29 C          65.8544   91.0241   13.7369 C.ar    1  UNL1        0.1787
@<TRIPOS>BOND
     1     2     1    1
     2     2     3    1
     3     3     4    1
     4     4     5    1
     5     5     6    2
     6     5     7    1
     7     8     7    1
     8     8     9    1
     9     9    10    1
    10    11    10    1
    11    11    12    1
    12    12    13    1
    13    13    14    1
    14    14    15    1
    15    15    16    1
    16    15    17    1
    17    17    23    1
    18    23    24   ar
    19    24    25   ar
    20    25    26   ar
    21    26    27    2
    22    26    28   ar
    23    28    29   ar
    24    17    18    1
    25    18    19    1
    26    19    20    1
    27    20    21    1
    28     8     2    1
    29    20    11    1
    30    12     2    1
    31    20    15    1
    32    29    23   ar
    33    21    22    1
@<TRIPOS>MOLECULE
*****
 29 33 0 0 0
SMALL
GASTEIGER

@<TRIPOS>ATOM
      1 C          64.9361   88.9826   14.4632 C.3     1  UNL1        0.0000
      2 C          64.6232   90.1267   13.5450 C.3     1  UNL1        0.0009
      3 C          65.4666   90.3529   14.7645 C.3     1  UNL1        0.0078
      4 C          65.9972   91.7232   15.0658 C.3     1  UNL1        0.0645
      5 C          65.6843   92.8672   14.1475 C.2     1  UNL1        0.1506
      6 O          66.2149   94.2376   14.4489 O.2     1  UNL1       -0.2961
      7 C          64.8408   92.6410   12.9280 C.3     1  UNL1        0.0645
      8 C          64.3103   91.2708   12.6267 C.3     1  UNL1        0.0073
      9 C          63.4668   91.0445   11.4071 C.3     1  UNL1        0.0005
     10 C          62.9362   89.6742   11.1058 C.3     1  UNL1        0.0023
     11 C          63.2491   88.5302   12.0241 C.3     1  UNL1        0.0247
     12 C          64.0926   88.7564   13.2436 C.3     1  UNL1        0.0023
     13 C          64.4055   87.6123   14.1619 C.3     1  UNL1        0.0002
     14 C          63.8749   86.2420   13.8606 C.3     1  UNL1        0.0026
     15 C          63.0314   86.0158   12.6410 C.3     1  UNL1        0.0264
     16 C          63.2597   84.7817   13.4625 C.3     1  UNL1        0.0027
     17 C          62.3736   84.7857   12.0897 C.3     1  UNL1        0.0277
     18 C          61.6542   85.1694   10.8306 C.3     1  UNL1        0.0069
     19 C          61.8674   86.6368   10.6039 C.3     1  UNL1        0.0273
     20 C          62.7185   87.1598   11.7227 C.3     1  UNL1        0.0884
     21 O          62.3244   88.2014   10.7177 O.3     1  UNL1       -0.3867
     22 H          62.7006   89.0576   10.9750 H       1  UNL1        0.2102
     23 C          62.4261   83.4127   12.6916 C.ar    1  UNL1        0.0155
     24 C          62.8747   82.2465   11.8617 C.ar    1  UNL1        0.0055
     25 C          62.9270   80.8736   12.4638 C.ar    1  UNL1        0.0821
     26 C          62.5308   80.6669   13.8956 C.ar    1  UNL1        0.3460
     27 O          62.5832   79.2940   14.4976 O.2     1  UNL1       -0.2445
     28 O          62.0822   81.8331   14.7255 O.2     1  UNL1       -0.4182
     29 C          62.0298   83.2060   14.1235 C.ar    1  UNL1        0.1787
@<TRIPOS>BOND
     1     2     1    1
     2     2     3    1
     3     3     4    1
     4     4     5    1
     5     5     6    2
     6     5     7    1
     7     8     7    1
     8     8     9    1
     9     9    10    1
    10    11    10    1
    11    11    12    1
    12    12    13    1
    13    13    14    1
    14    14    15    1
    15    15    16    1
    16    15    17    1
    17    17    23    1
    18    23    24   ar
    19    24    25   ar
    20    25    26   ar
    21    26    27    2
    22    26    28   ar
    23    28    29   ar
    24    17    18    1
    25    18    19    1
    26    19    20    1
    27    20    21    1
    28     8     2    1
    29    20    11    1
    30    12     2    1
    31    20    15    1
    32    29    23   ar
    33    21    22    1
@<TRIPOS>MOLECULE
*****
 29 33 0 0 0
SMALL
GASTEIGER

@<TRIPOS>ATOM
      1 C          61.7773   90.0044    9.9917 C.3     1  UNL1        0.0000
      2 C          61.2447   88.6068    9.8772 C.3     1  UNL1        0.0009
      3 C          60.8123   89.6568    8.8973 C.3     1  UNL1        0.0078
      4 C          59.8473   89.3093    7.8028 C.3     1  UNL1        0.0645
      5 C          59.3147   87.9117    7.6883 C.2     1  UNL1        0.1506
      6 O          58.3496   87.5642    6.5937 O.2     1  UNL1       -0.2961
      7 C          59.7471   86.8617    8.6682 C.3     1  UNL1        0.0645
      8 C          60.7121   87.2092    9.7627 C.3     1  UNL1        0.0073
      9 C          61.1446   86.1591   10.7427 C.3     1  UNL1        0.0005
     10 C          62.1096   86.5066   11.8372 C.3     1  UNL1        0.0023
     11 C          62.6422   87.9042   11.9517 C.3     1  UNL1        0.0247
     12 C          62.2098   88.9543   10.9718 C.3     1  UNL1        0.0023
     13 C          62.7424   90.3519   11.0863 C.3     1  UNL1        0.0002
     14 C          63.7074   90.6994   12.1808 C.3     1  UNL1        0.0026
     15 C          64.1399   89.6493   13.1608 C.3     1  UNL1        0.0264
     16 C          64.7538   90.9969   13.3998 C.3     1  UNL1        0.0027
     17 C          65.0717   89.6954   14.3352 C.3     1  UNL1        0.0277
     18 C          65.1151   88.3263   14.9466 C.3     1  UNL1        0.0069
     19 C          64.2100   87.4341   14.1499 C.3     1  UNL1        0.0273
     20 C          63.6073   88.2517   13.0463 C.3     1  UNL1        0.0884
     21 O          63.1619   86.8194   13.0575 O.3     1  UNL1       -0.3867
     22 H          62.5427   86.6676   12.3264 H       1  UNL1        0.2102
     23 C          65.8276   90.8992   14.8143 C.ar    1  UNL1        0.0155
     24 C          67.1794   91.2119   14.2444 C.ar    1  UNL1        0.0055
     25 C          67.9353   92.4157   14.7236 C.ar    1  UNL1        0.0821
     26 C          67.3392   93.3069   15.7726 C.ar    1  UNL1        0.3460
     27 O          68.0950   94.5107   16.2518 O.2     1  UNL1       -0.2445
     28 O          65.9874   92.9943   16.3425 O.2     1  UNL1       -0.4182
     29 C          65.2316   91.7904   15.8633 C.ar    1  UNL1        0.1787
@<TRIPOS>BOND
     1     2     1    1
     2     2     3    1
     3     3     4    1
     4     4     5    1
     5     5     6    2
     6     5     7    1
     7     8     7    1
     8     8     9    1
     9     9    10    1
    10    11    10    1
    11    11    12    1
    12    12    13    1
    13    13    14    1
    14    14    15    1
    15    15    16    1
    16    15    17    1
    17    17    23    1
    18    23    24   ar
    19    24    25   ar
    20    25    26   ar
    21    26    27    2
    22    26    28   ar
    23    28    29   ar
    24    17    18    1
    25    18    19    1
    26    19    20    1
    27    20    21    1
    28     8     2    1
    29    20    11    1
    30    12     2    1
    31    20    15    1
    32    29    23   ar
    33    21    22    1
@<TRIPOS>MOLECULE
*****
 29 33 0 0 0
SMALL
GASTEIGER

@<TRIPOS>ATOM
      1 C          63.6892   83.9525   11.8288 C.3     1  UNL1        0.0000
      2 C          63.1236   82.7232   12.4761 C.3     1  UNL1        0.0009
      3 C          63.5579   82.6828   11.0410 C.3     1  UNL1        0.0078
      4 C          63.4266   81.4132   10.2532 C.3     1  UNL1        0.0645
      5 C          62.8611   80.1839   10.9005 C.2     1  UNL1        0.1506
      6 O          62.7299   78.9142   10.1126 O.2     1  UNL1       -0.2961
      7 C          62.4269   80.2243   12.3357 C.3     1  UNL1        0.0645
      8 C          62.5581   81.4939   13.1235 C.3     1  UNL1        0.0073
      9 C          62.1239   81.5343   14.5587 C.3     1  UNL1        0.0005
     10 C          62.2551   82.8040   15.3466 C.3     1  UNL1        0.0023
     11 C          62.8206   84.0333   14.6992 C.3     1  UNL1        0.0247
     12 C          63.2549   83.9929   13.2640 C.3     1  UNL1        0.0023
     13 C          63.8204   85.2222   12.6167 C.3     1  UNL1        0.0002
     14 C          63.9517   86.4918   13.4045 C.3     1  UNL1        0.0026
     15 C          63.5174   86.5322   14.8398 C.3     1  UNL1        0.0264
     16 C          64.0616   87.8338   14.3300 C.3     1  UNL1        0.0027
     17 C          63.5258   87.6314   15.8603 C.3     1  UNL1        0.0277
     18 C          62.9654   87.0815   17.1384 C.3     1  UNL1        0.0069
     19 C          62.6108   85.6424   16.9077 C.3     1  UNL1        0.0273
     20 C          62.9519   85.3030   15.4871 C.3     1  UNL1        0.0884
     21 O          62.3712   84.1594   16.2650 O.3     1  UNL1       -0.3867
     22 H          62.3161   83.3760   15.6957 H       1  UNL1        0.2102
     23 C          64.0096   89.0343   15.6413 C.ar    1  UNL1        0.0155
     24 C          65.1416   89.2979   14.6932 C.ar    1  UNL1        0.0055
     25 C          65.6253   90.7008   14.4743 C.ar    1  UNL1        0.0821
     26 C          64.9770   91.8401   15.2035 C.ar    1  UNL1        0.3460
     27 O          65.4607   93.2430   14.9845 O.2     1  UNL1       -0.2445
     28 O          63.8449   91.5764   16.1516 O.2     1  UNL1       -0.4182
     29 C          63.3612   90.1735   16.3705 C.ar    1  UNL1        0.1787
@<TRIPOS>BOND
     1     2     1    1
     2     2     3    1
     3     3     4    1
     4     4     5    1
     5     5     6    2
     6     5     7    1
     7     8     7    1
     8     8     9    1
     9     9    10    1
    10    11    10    1
    11    11    12    1
    12    12    13    1
    13    13    14    1
    14    14    15    1
    15    15    16    1
    16    15    17    1
    17    17    23    1
    18    23    24   ar
    19    24    25   ar
    20    25    26   ar
    21    26    27    2
    22    26    28   ar
    23    28    29   ar
    24    17    18    1
    25    18    19    1
    26    19    20    1
    27    20    21    1
    28     8     2    1
    29    20    11    1
    30    12     2    1
    31    20    15    1
    32    29    23   ar
    33    21    22    1
