@<TRIPOS>MOLECULE
*****
 28 30 0 0 0
SMALL
GASTEIGER

@<TRIPOS>ATOM
      1 C          65.2446   91.2820   14.0717 C.ar    1  UNL1        0.0231
      2 C          66.6764   91.7289   14.0569 C.ar    1  UNL1        0.0597
      3 C          67.5475   91.4953   15.2555 C.3     1  UNL1        0.0519
      4 N          67.2371   92.4095   12.8434 N.ar    1  UNL1       -0.2307
      5 C          66.3661   92.6432   11.6448 C.ar    1  UNL1        0.1693
      6 N          64.9344   92.1963   11.6597 N.ar    1  UNL1       -0.2116
      7 C          64.3736   91.5157   12.8731 C.ar    1  UNL1        0.1309
      8 C          66.9269   93.3237   10.4314 C.ar    1  UNL1        0.0674
      9 C          67.8539   92.7089    9.4251 C.ar    1  UNL1        0.0125
     10 C          68.1590   93.7438    8.3830 C.ar    1  UNL1        0.0370
     11 C          67.4206   94.9982    8.7453 C.ar    1  UNL1        0.1699
     12 F          67.4403   96.2861    7.9766 F       1  UNL1       -0.1971
     13 S          66.6592   94.7386   10.0113 S.2     1  UNL1       -0.0547
     14 C          63.9873   91.4065   16.3418 C.3     1  UNL1        0.0052
     15 C          64.6838   90.6015   15.2851 C.3     1  UNL1        0.0304
     16 N          62.9417   91.0688   12.8878 N.pl3   1  UNL1       -0.2964
     17 H          62.3347   91.3848   13.5956 H       1  UNL1        0.1537
     18 C          62.4348   90.1405   11.8243 C.ar    1  UNL1        0.0772
     19 C          61.5249   90.6570   10.7494 C.ar    1  UNL1        0.0166
     20 C          61.0179   89.7287    9.6858 C.ar    1  UNL1       -0.0025
     21 C          61.4208   88.2838    9.6972 C.ar    1  UNL1       -0.0143
     22 C          62.3306   87.7673   10.7720 C.ar    1  UNL1        0.0270
     23 C          62.8376   88.6957   11.8356 C.ar    1  UNL1        0.1531
     24 F          63.7475   88.1792   12.9105 F       1  UNL1       -0.2029
     25 C          60.9139   87.3555    8.6336 C.3     1  UNL1        0.0680
     26 C          59.6353   87.6668    7.9135 C.2     1  UNL1        0.0547
     27 O          58.4472   86.7648    8.0708 O.co2   1  UNL1       -0.5488
     28 O          59.5449   88.8801    7.0362 O.co2   1  UNL1       -0.5488
@<TRIPOS>UNITY_ATOM_ATTR
27 1
charge -1
@<TRIPOS>BOND
     1    14    15    1
     2    15     1    1
     3     1     2   ar
     4     2     3    1
     5     2     4   ar
     6     4     5   ar
     7     5     8    1
     8     8     9   ar
     9     9    10   ar
    10    10    11   ar
    11    11    12    1
    12    11    13   ar
    13     5     6   ar
    14     6     7   ar
    15     7    16    1
    16    16    18    1
    17    18    19   ar
    18    19    20   ar
    19    20    21   ar
    20    21    25    1
    21    25    26    1
    22    26    27   ar
    23    26    28   ar
    24    21    22   ar
    25    22    23   ar
    26    23    24    1
    27     7     1   ar
    28    23    18   ar
    29    13     8   ar
    30    16    17    1
@<TRIPOS>MOLECULE
*****
 28 30 0 0 0
SMALL
GASTEIGER

@<TRIPOS>ATOM
      1 C          60.7763   88.5288   10.4935 C.ar    1  UNL1        0.0231
      2 C          60.4803   87.3976    9.5540 C.ar    1  UNL1        0.0597
      3 C          59.4687   87.5756    8.4608 C.3     1  UNL1        0.0519
      4 N          61.1960   86.0883    9.7076 N.ar    1  UNL1       -0.2307
      5 C          62.2076   85.9102   10.8007 C.ar    1  UNL1        0.1693
      6 N          62.5036   87.0414   11.7402 N.ar    1  UNL1       -0.2116
      7 C          61.7879   88.3507   11.5866 C.ar    1  UNL1        0.1309
      8 C          62.9232   84.6009   10.9542 C.ar    1  UNL1        0.0674
      9 C          63.6218   83.8446    9.8634 C.ar    1  UNL1        0.0125
     10 C          64.1963   82.5943   10.4606 C.ar    1  UNL1        0.0370
     11 C          63.8527   82.5778   11.9206 C.ar    1  UNL1        0.1699
     12 F          64.2297   81.5088   12.9031 F       1  UNL1       -0.1971
     13 S          63.0659   83.8179   12.2257 S.2     1  UNL1       -0.0547
     14 C          59.2816   90.4063   11.4888 C.3     1  UNL1        0.0052
     15 C          60.0607   89.8381   10.3399 C.3     1  UNL1        0.0304
     16 N          62.0839   89.4820   12.5261 N.pl3   1  UNL1       -0.2964
     17 H          61.5571   89.5873   13.3511 H       1  UNL1        0.1537
     18 C          63.1825   90.4526   12.2087 C.ar    1  UNL1        0.0772
     19 C          63.3049   91.0209   10.8259 C.ar    1  UNL1        0.0166
     20 C          64.4035   91.9916   10.5084 C.ar    1  UNL1       -0.0025
     21 C          65.3798   92.3940   11.5738 C.ar    1  UNL1       -0.0143
     22 C          65.2575   91.8258   12.9566 C.ar    1  UNL1        0.0270
     23 C          64.1588   90.8551   13.2740 C.ar    1  UNL1        0.1531
     24 F          64.0365   90.2869   14.6568 F       1  UNL1       -0.2029
     25 C          66.4784   93.3647   11.2563 C.3     1  UNL1        0.0680
     26 C          67.2424   93.2388    9.9716 C.2     1  UNL1        0.0547
     27 O          67.1597   94.3250    8.9404 O.co2   1  UNL1       -0.5488
     28 O          68.0891   92.0269    9.7181 O.co2   1  UNL1       -0.5488
@<TRIPOS>UNITY_ATOM_ATTR
27 1
charge -1
@<TRIPOS>BOND
     1    14    15    1
     2    15     1    1
     3     1     2   ar
     4     2     3    1
     5     2     4   ar
     6     4     5   ar
     7     5     8    1
     8     8     9   ar
     9     9    10   ar
    10    10    11   ar
    11    11    12    1
    12    11    13   ar
    13     5     6   ar
    14     6     7   ar
    15     7    16    1
    16    16    18    1
    17    18    19   ar
    18    19    20   ar
    19    20    21   ar
    20    21    25    1
    21    25    26    1
    22    26    27   ar
    23    26    28   ar
    24    21    22   ar
    25    22    23   ar
    26    23    24    1
    27     7     1   ar
    28    23    18   ar
    29    13     8   ar
    30    16    17    1
@<TRIPOS>MOLECULE
*****
 28 30 0 0 0
SMALL
GASTEIGER

@<TRIPOS>ATOM
      1 C          61.7690   87.4620    9.8432 C.ar    1  UNL1        0.0231
      2 C          62.0039   86.0620    9.3588 C.ar    1  UNL1        0.0597
      3 C          61.7534   85.7137    7.9214 C.3     1  UNL1        0.0519
      4 N          62.4893   85.0101   10.3117 N.ar    1  UNL1       -0.2307
      5 C          62.7398   85.3583   11.7490 C.ar    1  UNL1        0.1693
      6 N          62.5049   86.7583   12.2334 N.ar    1  UNL1       -0.2116
      7 C          62.0194   87.8102   11.2805 C.ar    1  UNL1        0.1309
      8 C          63.2252   84.3065   12.7019 C.ar    1  UNL1        0.0674
      9 C          63.8900   84.5534   14.0237 C.ar    1  UNL1        0.0125
     10 C          64.2067   83.2226   14.6390 C.ar    1  UNL1        0.0370
     11 C          63.7376   82.1532   13.6976 C.ar    1  UNL1        0.1699
     12 F          63.8546   80.6736   13.9151 F       1  UNL1       -0.1971
     13 S          63.1310   82.8231   12.5004 S.2     1  UNL1       -0.0547
     14 C          59.8148   88.6678    8.6278 C.3     1  UNL1        0.0052
     15 C          61.2836   88.5138    8.8903 C.3     1  UNL1        0.0304
     16 N          61.7845   89.2102   11.7650 N.pl3   1  UNL1       -0.2964
     17 H          60.8673   89.5627   11.8257 H       1  UNL1        0.1537
     18 C          62.9471   90.0732   12.1571 C.ar    1  UNL1        0.0772
     19 C          63.5591   89.9333   13.5194 C.ar    1  UNL1        0.0166
     20 C          64.7217   90.7962   13.9115 C.ar    1  UNL1       -0.0025
     21 C          65.2722   91.7991   12.9414 C.ar    1  UNL1       -0.0143
     22 C          64.6602   91.9389   11.5791 C.ar    1  UNL1        0.0270
     23 C          63.4976   91.0760   11.1869 C.ar    1  UNL1        0.1531
     24 F          62.8856   91.2159    9.8246 F       1  UNL1       -0.2029
     25 C          66.4348   92.6620   13.3334 C.3     1  UNL1        0.0680
     26 C          67.7249   92.0309   13.7663 C.2     1  UNL1        0.0547
     27 O          68.7754   91.6977   12.7487 O.co2   1  UNL1       -0.5488
     28 O          67.9646   91.7331   15.2167 O.co2   1  UNL1       -0.5488
@<TRIPOS>UNITY_ATOM_ATTR
27 1
charge -1
@<TRIPOS>BOND
     1    14    15    1
     2    15     1    1
     3     1     2   ar
     4     2     3    1
     5     2     4   ar
     6     4     5   ar
     7     5     8    1
     8     8     9   ar
     9     9    10   ar
    10    10    11   ar
    11    11    12    1
    12    11    13   ar
    13     5     6   ar
    14     6     7   ar
    15     7    16    1
    16    16    18    1
    17    18    19   ar
    18    19    20   ar
    19    20    21   ar
    20    21    25    1
    21    25    26    1
    22    26    27   ar
    23    26    28   ar
    24    21    22   ar
    25    22    23   ar
    26    23    24    1
    27     7     1   ar
    28    23    18   ar
    29    13     8   ar
    30    16    17    1
@<TRIPOS>MOLECULE
*****
 28 30 0 0 0
SMALL
GASTEIGER

@<TRIPOS>ATOM
      1 C          63.6941   88.3762   13.6824 C.ar    1  UNL1        0.0231
      2 C          63.6238   86.8969   13.4439 C.ar    1  UNL1        0.0597
      3 C          64.1872   85.9461   14.4581 C.3     1  UNL1        0.0519
      4 N          62.9901   86.3685   12.1913 N.ar    1  UNL1       -0.2307
      5 C          62.4267   87.3193   11.1771 C.ar    1  UNL1        0.1693
      6 N          62.4970   88.7985   11.4156 N.ar    1  UNL1       -0.2116
      7 C          63.1307   89.3269   12.6682 C.ar    1  UNL1        0.1309
      8 C          61.7930   86.7908    9.9244 C.ar    1  UNL1        0.0674
      9 C          62.4500   85.9002    8.9120 C.ar    1  UNL1        0.0125
     10 C          61.4541   85.6191    7.8261 C.ar    1  UNL1        0.0370
     11 C          60.1815   86.3361    8.1674 C.ar    1  UNL1        0.1699
     12 F          58.9208   86.3300    7.3546 F       1  UNL1       -0.1971
     13 S          60.3910   87.0602    9.4643 S.2     1  UNL1       -0.0547
     14 C          63.4688   89.3217   16.0918 C.3     1  UNL1        0.0052
     15 C          64.3278   88.9046   14.9351 C.3     1  UNL1        0.0304
     16 N          63.2010   90.8062   12.9067 N.pl3   1  UNL1       -0.2964
     17 H          62.5243   91.2468   13.4699 H       1  UNL1        0.1537
     18 C          64.3024   91.6143   12.2871 C.ar    1  UNL1        0.0772
     19 C          65.4670   92.0591   13.1214 C.ar    1  UNL1        0.0166
     20 C          66.5683   92.8671   12.5018 C.ar    1  UNL1       -0.0025
     21 C          66.5052   93.2304   11.0478 C.ar    1  UNL1       -0.0143
     22 C          65.3408   92.7857   10.2135 C.ar    1  UNL1        0.0270
     23 C          64.2393   91.9776   10.8331 C.ar    1  UNL1        0.1531
     24 F          63.0748   91.5329    9.9988 F       1  UNL1       -0.2029
     25 C          67.6066   94.0385   10.4282 C.3     1  UNL1        0.0680
     26 C          67.8019   94.0241    8.9410 C.2     1  UNL1        0.0547
     27 O          68.4117   92.8257    8.2762 O.co2   1  UNL1       -0.5488
     28 O          67.3875   95.2081    8.1187 O.co2   1  UNL1       -0.5488
@<TRIPOS>UNITY_ATOM_ATTR
27 1
charge -1
@<TRIPOS>BOND
     1    14    15    1
     2    15     1    1
     3     1     2   ar
     4     2     3    1
     5     2     4   ar
     6     4     5   ar
     7     5     8    1
     8     8     9   ar
     9     9    10   ar
    10    10    11   ar
    11    11    12    1
    12    11    13   ar
    13     5     6   ar
    14     6     7   ar
    15     7    16    1
    16    16    18    1
    17    18    19   ar
    18    19    20   ar
    19    20    21   ar
    20    21    25    1
    21    25    26    1
    22    26    27   ar
    23    26    28   ar
    24    21    22   ar
    25    22    23   ar
    26    23    24    1
    27     7     1   ar
    28    23    18   ar
    29    13     8   ar
    30    16    17    1
@<TRIPOS>MOLECULE
*****
 28 30 0 0 0
SMALL
GASTEIGER

@<TRIPOS>ATOM
      1 C          61.1743   87.6336    9.6159 C.ar    1  UNL1        0.0231
      2 C          61.3609   86.2232    9.1407 C.ar    1  UNL1        0.0597
      3 C          60.9348   85.8357    7.7557 C.3     1  UNL1        0.0519
      4 N          61.9738   85.2001   10.0506 N.ar    1  UNL1       -0.2307
      5 C          62.3999   85.5875   11.4356 C.ar    1  UNL1        0.1693
      6 N          62.2133   86.9979   11.9107 N.ar    1  UNL1       -0.2116
      7 C          61.6004   88.0210   11.0009 C.ar    1  UNL1        0.1309
      8 C          63.0128   84.5645   12.3454 C.ar    1  UNL1        0.0674
      9 C          63.7922   84.8498   13.5949 C.ar    1  UNL1        0.0125
     10 C          64.2149   83.5381   14.1872 C.ar    1  UNL1        0.0370
     11 C          63.6967   82.4421   13.3039 C.ar    1  UNL1        0.1699
     12 F          63.8880   80.9703   13.5207 F       1  UNL1       -0.1971
     13 S          62.9538   83.0764   12.1656 S.2     1  UNL1       -0.0547
     14 C          59.2523   88.3721    8.0314 C.3     1  UNL1        0.0052
     15 C          60.5614   88.6566    8.7060 C.3     1  UNL1        0.0304
     16 N          61.4138   89.4315   11.4761 N.pl3   1  UNL1       -0.2964
     17 H          60.5130   89.7610   11.6980 H       1  UNL1        0.1537
     18 C          62.5995   90.3398   11.6132 C.ar    1  UNL1        0.0772
     19 C          63.1279   91.0696   10.4139 C.ar    1  UNL1        0.0166
     20 C          64.3137   91.9779   10.5511 C.ar    1  UNL1       -0.0025
     21 C          64.9711   92.1565   11.8874 C.ar    1  UNL1       -0.0143
     22 C          64.4428   91.4268   13.0867 C.ar    1  UNL1        0.0270
     23 C          63.2569   90.5184   12.9496 C.ar    1  UNL1        0.1531
     24 F          62.7286   89.7886   14.1489 F       1  UNL1       -0.2029
     25 C          66.1569   93.0649   12.0246 C.3     1  UNL1        0.0680
     26 C          67.0005   93.0151   13.2639 C.2     1  UNL1        0.0547
     27 O          66.6683   93.8941   14.4331 O.co2   1  UNL1       -0.5488
     28 O          68.1762   92.0862   13.3340 O.co2   1  UNL1       -0.5488
@<TRIPOS>UNITY_ATOM_ATTR
27 1
charge -1
@<TRIPOS>BOND
     1    14    15    1
     2    15     1    1
     3     1     2   ar
     4     2     3    1
     5     2     4   ar
     6     4     5   ar
     7     5     8    1
     8     8     9   ar
     9     9    10   ar
    10    10    11   ar
    11    11    12    1
    12    11    13   ar
    13     5     6   ar
    14     6     7   ar
    15     7    16    1
    16    16    18    1
    17    18    19   ar
    18    19    20   ar
    19    20    21   ar
    20    21    25    1
    21    25    26    1
    22    26    27   ar
    23    26    28   ar
    24    21    22   ar
    25    22    23   ar
    26    23    24    1
    27     7     1   ar
    28    23    18   ar
    29    13     8   ar
    30    16    17    1
@<TRIPOS>MOLECULE
*****
 28 30 0 0 0
SMALL
GASTEIGER

@<TRIPOS>ATOM
      1 C          63.8380   89.1652   13.2746 C.ar    1  UNL1        0.0231
      2 C          63.3842   90.0159   12.1255 C.ar    1  UNL1        0.0597
      3 C          63.6724   91.4880   12.1225 C.3     1  UNL1        0.0519
      4 N          62.6423   89.3945   10.9795 N.ar    1  UNL1       -0.2307
      5 C          62.3542   87.9225   10.9825 C.ar    1  UNL1        0.1693
      6 N          62.8080   87.0718   12.1315 N.ar    1  UNL1       -0.2116
      7 C          63.5499   87.6932   13.2776 C.ar    1  UNL1        0.1309
      8 C          61.6122   87.3011    9.8364 C.ar    1  UNL1        0.0674
      9 C          62.1492   86.2604    8.8991 C.ar    1  UNL1        0.0125
     10 C          61.0719   85.9274    7.9098 C.ar    1  UNL1        0.0370
     11 C          59.8691   86.7624    8.2358 C.ar    1  UNL1        0.1699
     12 F          58.5620   86.7505    7.5002 F       1  UNL1       -0.1971
     13 S          60.2031   87.6113    9.4264 S.2     1  UNL1       -0.0547
     14 C          63.8254   90.3134   15.6051 C.3     1  UNL1        0.0052
     15 C          64.5799   89.7866   14.4206 C.3     1  UNL1        0.0304
     16 N          64.0037   86.8424   14.4267 N.pl3   1  UNL1       -0.2964
     17 H          64.4055   87.2622   15.2214 H       1  UNL1        0.1537
     18 C          63.8453   85.3521   14.3650 C.ar    1  UNL1        0.0772
     19 C          64.5366   84.5683   13.2889 C.ar    1  UNL1        0.0166
     20 C          64.3782   83.0780   13.2272 C.ar    1  UNL1       -0.0025
     21 C          63.5285   82.3714   14.2414 C.ar    1  UNL1       -0.0143
     22 C          62.8372   83.1552   15.3174 C.ar    1  UNL1        0.0270
     23 C          62.9956   84.6455   15.3792 C.ar    1  UNL1        0.1531
     24 F          62.3042   85.4293   16.4552 F       1  UNL1       -0.2029
     25 C          63.3701   80.8811   14.1797 C.3     1  UNL1        0.0680
     26 C          62.2463   80.2784   13.3898 C.2     1  UNL1        0.0547
     27 O          60.8584   80.2549   13.9582 O.co2   1  UNL1       -0.5488
     28 O          62.5104   79.6993   12.0316 O.co2   1  UNL1       -0.5488
@<TRIPOS>UNITY_ATOM_ATTR
27 1
charge -1
@<TRIPOS>BOND
     1    14    15    1
     2    15     1    1
     3     1     2   ar
     4     2     3    1
     5     2     4   ar
     6     4     5   ar
     7     5     8    1
     8     8     9   ar
     9     9    10   ar
    10    10    11   ar
    11    11    12    1
    12    11    13   ar
    13     5     6   ar
    14     6     7   ar
    15     7    16    1
    16    16    18    1
    17    18    19   ar
    18    19    20   ar
    19    20    21   ar
    20    21    25    1
    21    25    26    1
    22    26    27   ar
    23    26    28   ar
    24    21    22   ar
    25    22    23   ar
    26    23    24    1
    27     7     1   ar
    28    23    18   ar
    29    13     8   ar
    30    16    17    1
@<TRIPOS>MOLECULE
*****
 28 30 0 0 0
SMALL
GASTEIGER

@<TRIPOS>ATOM
      1 C          61.9323   88.4188   10.5775 C.ar    1  UNL1        0.0231
      2 C          61.9086   87.0639    9.9343 C.ar    1  UNL1        0.0597
      3 C          61.3752   86.9041    8.5414 C.3     1  UNL1        0.0519
      4 N          62.4183   85.8688   10.6839 N.ar    1  UNL1       -0.2307
      5 C          62.9516   86.0285   12.0767 C.ar    1  UNL1        0.1693
      6 N          62.9753   87.3834   12.7199 N.ar    1  UNL1       -0.2116
      7 C          62.4656   88.5785   11.9703 C.ar    1  UNL1        0.1309
      8 C          63.4613   84.8334   12.8263 C.ar    1  UNL1        0.0674
      9 C          64.1772   84.8587   14.1442 C.ar    1  UNL1        0.0125
     10 C          64.5029   83.4441   14.5221 C.ar    1  UNL1        0.0370
     11 C          63.9883   82.5445   13.4377 C.ar    1  UNL1        0.1699
     12 F          64.0982   81.0488   13.4068 F       1  UNL1       -0.1971
     13 S          63.3446   83.4031   12.3897 S.2     1  UNL1       -0.0547
     14 C          60.0551   90.1560   10.1212 C.3     1  UNL1        0.0052
     15 C          61.4226   89.6139    9.8279 C.3     1  UNL1        0.0304
     16 N          62.4893   89.9334   12.6136 N.pl3   1  UNL1       -0.2964
     17 H          61.6474   90.4199   12.7677 H       1  UNL1        0.1537
     18 C          63.7956   90.5470   13.0220 C.ar    1  UNL1        0.0772
     19 C          64.4301   91.6010   12.1636 C.ar    1  UNL1        0.0166
     20 C          65.7365   92.2146   12.5720 C.ar    1  UNL1       -0.0025
     21 C          66.4085   91.7743   13.8388 C.ar    1  UNL1       -0.0143
     22 C          65.7741   90.7204   14.6971 C.ar    1  UNL1        0.0270
     23 C          64.4676   90.1067   14.2887 C.ar    1  UNL1        0.1531
     24 F          63.8332   89.0528   15.1470 F       1  UNL1       -0.2029
     25 C          67.7148   92.3879   14.2472 C.3     1  UNL1        0.0680
     26 C          67.8252   93.1168   15.5535 C.2     1  UNL1        0.0547
     27 O          66.6868   93.0831   16.5297 O.co2   1  UNL1       -0.5488
     28 O          69.0740   93.8794   15.8837 O.co2   1  UNL1       -0.5488
@<TRIPOS>UNITY_ATOM_ATTR
27 1
charge -1
@<TRIPOS>BOND
     1    14    15    1
     2    15     1    1
     3     1     2   ar
     4     2     3    1
     5     2     4   ar
     6     4     5   ar
     7     5     8    1
     8     8     9   ar
     9     9    10   ar
    10    10    11   ar
    11    11    12    1
    12    11    13   ar
    13     5     6   ar
    14     6     7   ar
    15     7    16    1
    16    16    18    1
    17    18    19   ar
    18    19    20   ar
    19    20    21   ar
    20    21    25    1
    21    25    26    1
    22    26    27   ar
    23    26    28   ar
    24    21    22   ar
    25    22    23   ar
    26    23    24    1
    27     7     1   ar
    28    23    18   ar
    29    13     8   ar
    30    16    17    1
@<TRIPOS>MOLECULE
*****
 28 30 0 0 0
SMALL
GASTEIGER

@<TRIPOS>ATOM
      1 C          63.6355   86.7915   13.3276 C.ar    1  UNL1        0.0231
      2 C          63.2474   85.5596   12.5648 C.ar    1  UNL1        0.0597
      3 C          63.7253   84.2130   13.0214 C.3     1  UNL1        0.0519
      4 N          62.3814   85.6742   11.3454 N.ar    1  UNL1       -0.2307
      5 C          61.9036   87.0207   10.8888 C.ar    1  UNL1        0.1693
      6 N          62.2916   88.2526   11.6515 N.ar    1  UNL1       -0.2116
      7 C          63.1576   88.1380   12.8710 C.ar    1  UNL1        0.1309
      8 C          61.0376   87.1353    9.6693 C.ar    1  UNL1        0.0674
      9 C          60.6528   86.0123    8.7525 C.ar    1  UNL1        0.0125
     10 C          59.7818   86.5760    7.6691 C.ar    1  UNL1        0.0370
     11 C          59.6283   88.0475    7.9165 C.ar    1  UNL1        0.1699
     12 F          58.8375   89.0051    7.0753 F       1  UNL1       -0.1971
     13 S          60.4044   88.3931    9.1526 S.2     1  UNL1       -0.0547
     14 C          63.9032   86.2486   15.8542 C.3     1  UNL1        0.0052
     15 C          64.5014   86.6769   14.5470 C.3     1  UNL1        0.0304
     16 N          63.5456   89.3699   13.6337 N.pl3   1  UNL1       -0.2964
     17 H          63.3886   89.4177   14.6045 H       1  UNL1        0.1537
     18 C          64.1730   90.5290   12.9175 C.ar    1  UNL1        0.0772
     19 C          63.7085   90.8999   11.5403 C.ar    1  UNL1        0.0166
     20 C          64.3358   92.0590   10.8240 C.ar    1  UNL1       -0.0025
     21 C          65.4276   92.8472   11.4850 C.ar    1  UNL1       -0.0143
     22 C          65.8920   92.4763   12.8622 C.ar    1  UNL1        0.0270
     23 C          65.2647   91.3171   13.5785 C.ar    1  UNL1        0.1531
     24 F          65.7291   90.9462   14.9557 F       1  UNL1       -0.2029
     25 C          66.0549   94.0062   10.7688 C.3     1  UNL1        0.0680
     26 C          67.2292   93.7815    9.8629 C.2     1  UNL1        0.0547
     27 O          67.3384   94.5413    8.5742 O.co2   1  UNL1       -0.5488
     28 O          68.2942   92.7970   10.2457 O.co2   1  UNL1       -0.5488
@<TRIPOS>UNITY_ATOM_ATTR
27 1
charge -1
@<TRIPOS>BOND
     1    14    15    1
     2    15     1    1
     3     1     2   ar
     4     2     3    1
     5     2     4   ar
     6     4     5   ar
     7     5     8    1
     8     8     9   ar
     9     9    10   ar
    10    10    11   ar
    11    11    12    1
    12    11    13   ar
    13     5     6   ar
    14     6     7   ar
    15     7    16    1
    16    16    18    1
    17    18    19   ar
    18    19    20   ar
    19    20    21   ar
    20    21    25    1
    21    25    26    1
    22    26    27   ar
    23    26    28   ar
    24    21    22   ar
    25    22    23   ar
    26    23    24    1
    27     7     1   ar
    28    23    18   ar
    29    13     8   ar
    30    16    17    1
@<TRIPOS>MOLECULE
*****
 28 30 0 0 0
SMALL
GASTEIGER

@<TRIPOS>ATOM
      1 C          63.8055   86.1774   13.9035 C.ar    1  UNL1        0.0231
      2 C          63.6785   84.8268   13.2635 C.ar    1  UNL1        0.0597
      3 C          64.1249   83.6010   14.0039 C.3     1  UNL1        0.0519
      4 N          63.1052   84.7019   11.8830 N.ar    1  UNL1       -0.2307
      5 C          62.6588   85.9277   11.1426 C.ar    1  UNL1        0.1693
      6 N          62.7858   87.2783   11.7826 N.ar    1  UNL1       -0.2116
      7 C          63.3591   87.4031   13.1631 C.ar    1  UNL1        0.1309
      8 C          62.0855   85.8028    9.7621 C.ar    1  UNL1        0.0674
      9 C          60.7506   86.3181    9.3119 C.ar    1  UNL1        0.0125
     10 C          60.5865   85.9745    7.8610 C.ar    1  UNL1        0.0370
     11 C          61.8198   85.2468    7.4146 C.ar    1  UNL1        0.1699
     12 F          62.0810   84.7181    6.0353 F       1  UNL1       -0.1971
     13 S          62.7463   85.1408    8.5895 S.2     1  UNL1       -0.0547
     14 C          63.4919   86.1370   16.4823 C.3     1  UNL1        0.0052
     15 C          64.3788   86.3023   15.2840 C.3     1  UNL1        0.0304
     16 N          63.4861   88.7538   13.8031 N.pl3   1  UNL1       -0.2964
     17 H          63.2919   88.8645   14.7619 H       1  UNL1        0.1537
     18 C          63.9090   89.9359   12.9823 C.ar    1  UNL1        0.0772
     19 C          63.2436   90.2121   11.6666 C.ar    1  UNL1        0.0166
     20 C          63.6665   91.3942   10.8458 C.ar    1  UNL1       -0.0025
     21 C          64.7548   92.3002   11.3407 C.ar    1  UNL1       -0.0143
     22 C          65.4201   92.0241   12.6563 C.ar    1  UNL1        0.0270
     23 C          64.9973   90.8419   13.4772 C.ar    1  UNL1        0.1531
     24 F          65.6626   90.5658   14.7929 F       1  UNL1       -0.2029
     25 C          65.1777   93.4823   10.5199 C.3     1  UNL1        0.0680
     26 C          66.3768   94.2869   10.9259 C.2     1  UNL1        0.0547
     27 O          67.7441   93.8826   10.4600 O.co2   1  UNL1       -0.5488
     28 O          66.2086   95.4959   11.7977 O.co2   1  UNL1       -0.5488
@<TRIPOS>UNITY_ATOM_ATTR
27 1
charge -1
@<TRIPOS>BOND
     1    14    15    1
     2    15     1    1
     3     1     2   ar
     4     2     3    1
     5     2     4   ar
     6     4     5   ar
     7     5     8    1
     8     8     9   ar
     9     9    10   ar
    10    10    11   ar
    11    11    12    1
    12    11    13   ar
    13     5     6   ar
    14     6     7   ar
    15     7    16    1
    16    16    18    1
    17    18    19   ar
    18    19    20   ar
    19    20    21   ar
    20    21    25    1
    21    25    26    1
    22    26    27   ar
    23    26    28   ar
    24    21    22   ar
    25    22    23   ar
    26    23    24    1
    27     7     1   ar
    28    23    18   ar
    29    13     8   ar
    30    16    17    1
