@<TRIPOS>MOLECULE
*****
 53 56 0 0 0
SMALL
GASTEIGER

@<TRIPOS>ATOM
      1 C          62.3376   87.6572   11.5280 C.3     1  UNL1        0.0760
      2 C          62.9862   89.3114   13.4236 C.2     1  UNL1        0.2407
      3 O          61.7503   90.1146   13.1455 O.2     1  UNL1       -0.2733
      4 N          63.2798   88.0826   12.6149 N.am    1  UNL1       -0.3043
      5 H          64.0910   87.5554   12.7974 H       1  UNL1        0.1494
      6 C          63.9284   89.7368   14.5104 C.3     1  UNL1        0.1553
      7 N          66.9196   92.3431   14.6114 N.am    1  UNL1       -0.2567
      8 C          67.3582   93.5355   15.4089 C.3     1  UNL1        0.1168
      9 C          65.6433   91.6362   14.9596 C.2     1  UNL1        0.3046
     10 O          64.8055   92.1216   16.1053 O.2     1  UNL1       -0.2526
     11 N          65.2048   90.4438   14.1622 N.am    1  UNL1       -0.2821
     12 H          65.7546   90.1252   13.4103 H       1  UNL1        0.1514
     13 C          67.7573   91.8577   13.4658 C.3     1  UNL1        0.1413
     14 C          67.0783   94.0663   10.3469 C.ar    1  UNL1        0.0875
     15 N          67.0077   93.8318   11.8268 N.ar    1  UNL1       -0.2453
     16 C          67.6189   92.4923   12.1136 C.ar    1  UNL1        0.0858
     17 C          68.0672   91.8989   10.8110 C.ar    1  UNL1        0.0530
     18 S          67.7332   92.8716    9.7192 S.2     1  UNL1       -0.0705
     19 C          65.4029   96.0425   10.1537 C.3     1  UNL1        0.0069
     20 C          66.5813   95.2818    9.6221 C.3     1  UNL1        0.0465
     21 C          67.2629   95.7367    8.3657 C.3     1  UNL1        0.0069
     22 C          63.5944   89.4552   15.9454 C.3     1  UNL1        0.0707
     23 C          63.4559   88.0388   16.4192 C.2     1  UNL1        0.0525
     24 O          62.8903   87.7548   17.7791 O.co2   1  UNL1       -0.5491
     25 O          63.8831   86.9064   15.5332 O.co2   1  UNL1       -0.5491
     26 C          61.9779   88.6139   10.4302 C.3     1  UNL1        0.0216
     27 C          60.5522   88.7385    9.9812 C.3     1  UNL1        0.0217
     28 C          60.1762   88.3879    8.5720 C.3     1  UNL1        0.0792
     29 N          60.2432   89.4311    7.4963 N.am    1  UNL1       -0.2720
     30 C          59.0671   89.6524    6.5918 C.2     1  UNL1        0.4019
     31 O          57.8242   88.8304    6.7631 O.2     1  UNL1       -0.2264
     32 H          61.0590   89.9706    7.3838 H       1  UNL1        0.1527
     33 O          59.1341   90.6956    5.5161 O.3     1  UNL1       -0.4291
     34 C          60.4649   91.1534    4.9971 C.3     1  UNL1        0.2447
     35 C          60.5345   92.0340    3.7848 C.ar    1  UNL1        0.0714
     36 C          59.4151   92.8673    3.2349 C.ar    1  UNL1        0.1053
     37 N          59.9245   93.5843    2.0198 N.ar    1  UNL1       -0.2350
     38 C          61.3589   93.1942    1.8188 C.ar    1  UNL1        0.1343
     39 S          61.7358   92.2360    2.9096 S.2     1  UNL1       -0.0652
     40 C          59.7334   86.9941    8.2386 C.3     1  UNL1        0.0460
     41 C          60.7007   86.0268    7.6233 C.ar    1  UNL1       -0.0205
     42 C          62.1085   85.9462    8.1348 C.ar    1  UNL1       -0.0042
     43 C          63.0757   84.9789    7.5195 C.ar    1  UNL1       -0.0003
     44 C          62.6352   84.0921    6.3927 C.ar    1  UNL1       -0.0000
     45 C          61.2275   84.1727    5.8812 C.ar    1  UNL1       -0.0003
     46 C          60.2602   85.1400    6.4965 C.ar    1  UNL1       -0.0042
     47 C          61.7549   86.2750   11.5391 C.3     1  UNL1        0.0459
     48 C          62.6213   85.0986   11.8792 C.ar    1  UNL1       -0.0205
     49 C          62.8503   84.7258   13.3140 C.ar    1  UNL1       -0.0042
     50 C          63.7166   83.5494   13.6541 C.ar    1  UNL1       -0.0003
     51 C          64.3539   82.7459   12.5595 C.ar    1  UNL1       -0.0000
     52 C          64.1249   83.1187   11.1247 C.ar    1  UNL1       -0.0003
     53 C          63.2586   84.2951   10.7846 C.ar    1  UNL1       -0.0042
@<TRIPOS>UNITY_ATOM_ATTR
24 1
charge -1
@<TRIPOS>BOND
     1    19    20    1
     2    20    21    1
     3    20    14    1
     4    14    15   ar
     5    15    16   ar
     6    16    13    1
     7    13     7    1
     8     7     8    1
     9     7     9   am
    10     9    10    2
    11     9    11   am
    12    11     6    1
    13     6    22    1
    14    22    23    1
    15    23    24   ar
    16    23    25   ar
    17     6     2    1
    18     2     3    2
    19     2     4   am
    20     4     1    1
    21     1    26    1
    22    26    27    1
    23    28    27    1
    24    28    40    1
    25    40    41    1
    26    41    42   ar
    27    42    43   ar
    28    43    44   ar
    29    44    45   ar
    30    45    46   ar
    31    28    29    1
    32    29    30   am
    33    30    31    2
    34    30    33    1
    35    33    34    1
    36    34    35    1
    37    35    36   ar
    38    36    37   ar
    39    37    38   ar
    40    38    39   ar
    41     1    47    1
    42    47    48    1
    43    48    49   ar
    44    49    50   ar
    45    50    51   ar
    46    51    52   ar
    47    52    53   ar
    48    16    17   ar
    49    17    18   ar
    50    18    14   ar
    51    46    41   ar
    52    39    35   ar
    53    53    48   ar
    54    11    12    1
    55     4     5    1
    56    29    32    1
@<TRIPOS>MOLECULE
*****
 53 56 0 0 0
SMALL
GASTEIGER

@<TRIPOS>ATOM
      1 C          63.4751   85.1614   12.6430 C.3     1  UNL1        0.0760
      2 C          64.2996   86.7629   14.5153 C.2     1  UNL1        0.2407
      3 O          65.4134   85.8117   14.8385 O.2     1  UNL1       -0.2733
      4 N          63.3304   86.4378   13.4175 N.am    1  UNL1       -0.3043
      5 H          62.5993   87.0621   13.2054 H       1  UNL1        0.1494
      6 C          64.1548   88.0393   15.2899 C.3     1  UNL1        0.1553
      7 N          65.6523   91.7145   15.3081 N.am    1  UNL1       -0.2567
      8 C          65.4084   93.0351   15.9765 C.3     1  UNL1        0.1168
      9 C          64.7816   90.5372   15.6332 C.2     1  UNL1        0.3046
     10 O          63.6669   90.6804   16.6267 O.2     1  UNL1       -0.2526
     11 N          65.0255   89.2167   14.9648 N.am    1  UNL1       -0.2821
     12 H          65.7571   89.1228   14.3127 H       1  UNL1        0.1514
     13 C          66.7670   91.5714   14.3146 C.3     1  UNL1        0.1413
     14 C          67.2745   93.2717   10.8624 C.ar    1  UNL1        0.0875
     15 N          67.5072   92.1304   11.8076 N.ar    1  UNL1       -0.2453
     16 C          66.7991   92.4413   13.0929 C.ar    1  UNL1        0.0858
     17 C          66.1288   93.7746   12.9421 C.ar    1  UNL1        0.0530
     18 S          66.4226   94.2879   11.5636 S.2     1  UNL1       -0.0705
     19 C          67.4755   94.5812    8.6275 C.3     1  UNL1        0.0069
     20 C          67.8012   93.3781    9.4620 C.3     1  UNL1        0.0465
     21 C          68.6537   92.2813    8.8960 C.3     1  UNL1        0.0069
     22 C          63.1394   88.1383   16.3895 C.3     1  UNL1        0.0707
     23 C          62.7432   86.9121   17.1571 C.2     1  UNL1        0.0525
     24 O          62.3073   85.6774   16.4253 O.co2   1  UNL1       -0.5491
     25 O          62.7828   86.9204   18.6565 O.co2   1  UNL1       -0.5491
     26 C          63.0491   85.1037   11.2060 C.3     1  UNL1        0.0216
     27 C          61.6559   85.5038   10.8201 C.3     1  UNL1        0.0217
     28 C          61.3725   86.9118   10.3875 C.3     1  UNL1        0.0792
     29 N          61.1602   87.2219    8.9353 N.am    1  UNL1       -0.2720
     30 C          59.9583   88.0092    8.5044 C.2     1  UNL1        0.4019
     31 O          58.9687   88.4863    9.5257 O.2     1  UNL1       -0.2264
     32 H          61.8098   86.9087    8.2650 H       1  UNL1        0.1527
     33 O          59.7460   88.3192    7.0523 O.3     1  UNL1       -0.4291
     34 C          58.5979   89.1876    6.6308 C.3     1  UNL1        0.2447
     35 C          58.8362   90.3573    5.7225 C.ar    1  UNL1        0.0714
     36 C          57.7820   91.2565    5.1478 C.ar    1  UNL1        0.1053
     37 N          58.4648   92.2881    4.2995 N.ar    1  UNL1       -0.2350
     38 C          59.9409   92.0266    4.3499 C.ar    1  UNL1        0.1343
     39 S          60.1704   90.8333    5.2294 S.2     1  UNL1       -0.0652
     40 C          61.3014   88.0098   11.4070 C.3     1  UNL1        0.0460
     41 C          62.1467   89.2385   11.2463 C.ar    1  UNL1       -0.0205
     42 C          62.9477   89.7546   12.4047 C.ar    1  UNL1       -0.0042
     43 C          63.7929   90.9833   12.2440 C.ar    1  UNL1       -0.0003
     44 C          63.8373   91.6958   10.9247 C.ar    1  UNL1       -0.0000
     45 C          63.0363   91.1796    9.7663 C.ar    1  UNL1       -0.0003
     46 C          62.1911   89.9510    9.9270 C.ar    1  UNL1       -0.0042
     47 C          64.0459   83.9427   13.3056 C.3     1  UNL1        0.0459
     48 C          63.2569   82.6673   13.3373 C.ar    1  UNL1       -0.0205
     49 C          63.5736   81.5653   12.3702 C.ar    1  UNL1       -0.0042
     50 C          62.7847   80.2899   12.4019 C.ar    1  UNL1       -0.0003
     51 C          61.6790   80.1166   13.4006 C.ar    1  UNL1       -0.0000
     52 C          61.3623   81.2187   14.3677 C.ar    1  UNL1       -0.0003
     53 C          62.1512   82.4940   14.3360 C.ar    1  UNL1       -0.0042
@<TRIPOS>UNITY_ATOM_ATTR
24 1
charge -1
@<TRIPOS>BOND
     1    19    20    1
     2    20    21    1
     3    20    14    1
     4    14    15   ar
     5    15    16   ar
     6    16    13    1
     7    13     7    1
     8     7     8    1
     9     7     9   am
    10     9    10    2
    11     9    11   am
    12    11     6    1
    13     6    22    1
    14    22    23    1
    15    23    24   ar
    16    23    25   ar
    17     6     2    1
    18     2     3    2
    19     2     4   am
    20     4     1    1
    21     1    26    1
    22    26    27    1
    23    28    27    1
    24    28    40    1
    25    40    41    1
    26    41    42   ar
    27    42    43   ar
    28    43    44   ar
    29    44    45   ar
    30    45    46   ar
    31    28    29    1
    32    29    30   am
    33    30    31    2
    34    30    33    1
    35    33    34    1
    36    34    35    1
    37    35    36   ar
    38    36    37   ar
    39    37    38   ar
    40    38    39   ar
    41     1    47    1
    42    47    48    1
    43    48    49   ar
    44    49    50   ar
    45    50    51   ar
    46    51    52   ar
    47    52    53   ar
    48    16    17   ar
    49    17    18   ar
    50    18    14   ar
    51    46    41   ar
    52    39    35   ar
    53    53    48   ar
    54    11    12    1
    55     4     5    1
    56    29    32    1
@<TRIPOS>MOLECULE
*****
 53 56 0 0 0
SMALL
GASTEIGER

@<TRIPOS>ATOM
      1 C          63.0072   84.7589   11.8698 C.3     1  UNL1        0.0760
      2 C          64.1062   85.6815   14.0357 C.2     1  UNL1        0.2407
      3 O          65.1590   84.6161   13.9554 O.2     1  UNL1       -0.2733
      4 N          63.0303   85.7529   12.9930 N.am    1  UNL1       -0.3043
      5 H          62.3393   86.4522   13.0457 H       1  UNL1        0.1494
      6 C          64.1293   86.6755   15.1589 C.3     1  UNL1        0.1553
      7 N          64.4803   90.6271   15.2683 N.am    1  UNL1       -0.2567
      8 C          63.7651   91.8135   15.8437 C.3     1  UNL1        0.1168
      9 C          63.9472   89.2445   15.5013 C.2     1  UNL1        0.3046
     10 O          62.6990   89.0483   16.3097 O.2     1  UNL1       -0.2526
     11 N          64.6623   88.0582   14.9259 N.am    1  UNL1       -0.2821
     12 H          65.4815   88.1870   14.3953 H       1  UNL1        0.1514
     13 C          65.7284   90.8233   14.4599 C.3     1  UNL1        0.1413
     14 C          66.2748   92.6851   11.0981 C.ar    1  UNL1        0.0875
     15 N          66.7948   92.1527   12.4005 N.ar    1  UNL1       -0.2453
     16 C          65.6561   91.4911   13.1186 C.ar    1  UNL1        0.0858
     17 C          64.4323   91.6146   12.2601 C.ar    1  UNL1        0.0530
     18 S          64.8147   92.3525   11.0113 S.2     1  UNL1       -0.0705
     19 C          66.8192   94.8779    9.8155 C.3     1  UNL1        0.0069
     20 C          67.0745   93.4208   10.0641 C.3     1  UNL1        0.0465
     21 C          68.1294   92.6995    9.2788 C.3     1  UNL1        0.0069
     22 C          63.6193   86.2870   16.5149 C.3     1  UNL1        0.0707
     23 C          62.3390   85.5159   16.6421 C.2     1  UNL1        0.0525
     24 O          61.0842   86.2124   17.0782 O.co2   1  UNL1       -0.5491
     25 O          62.3135   84.0483   16.3332 O.co2   1  UNL1       -0.5491
     26 C          62.0325   84.9243   10.7418 C.3     1  UNL1        0.0216
     27 C          62.4062   85.7429    9.5417 C.3     1  UNL1        0.0217
     28 C          61.9844   87.1796    9.4529 C.3     1  UNL1        0.0792
     29 N          61.4038   87.7133    8.1769 N.am    1  UNL1       -0.2720
     30 C          59.9350   87.5746    7.9055 C.2     1  UNL1        0.4019
     31 O          59.0470   86.9022    8.9101 O.2     1  UNL1       -0.2264
     32 H          61.9867   88.1546    7.5176 H       1  UNL1        0.1527
     33 O          59.3544   88.1083    6.6295 O.3     1  UNL1       -0.4291
     34 C          58.5145   89.3508    6.6498 C.3     1  UNL1        0.2447
     35 C          58.8111   90.4722    5.6987 C.ar    1  UNL1        0.0714
     36 C          57.8013   91.3880    5.0729 C.ar    1  UNL1        0.1053
     37 N          58.5358   92.3565    4.1940 N.ar    1  UNL1       -0.2350
     38 C          59.9995   92.0393    4.2765 C.ar    1  UNL1        0.1343
     39 S          60.1697   90.8747    5.2065 S.2     1  UNL1       -0.0652
     40 C          62.1432   88.0827   10.6400 C.3     1  UNL1        0.0460
     41 C          60.9828   88.9045   11.1178 C.ar    1  UNL1       -0.0205
     42 C          59.9188   88.2765   11.9684 C.ar    1  UNL1       -0.0042
     43 C          58.7585   89.0983   12.4461 C.ar    1  UNL1       -0.0003
     44 C          58.6622   90.5480   12.0733 C.ar    1  UNL1       -0.0000
     45 C          59.7262   91.1760   11.2227 C.ar    1  UNL1       -0.0003
     46 C          60.8865   90.3542   10.7450 C.ar    1  UNL1       -0.0042
     47 C          63.9589   83.5995   11.8748 C.3     1  UNL1        0.0459
     48 C          63.4502   82.2127   12.1359 C.ar    1  UNL1       -0.0205
     49 C          63.2909   81.2461   11.0000 C.ar    1  UNL1       -0.0042
     50 C          62.7822   79.8593   11.2611 C.ar    1  UNL1       -0.0003
     51 C          62.4327   79.4392   12.6580 C.ar    1  UNL1       -0.0000
     52 C          62.5920   80.4059   13.7939 C.ar    1  UNL1       -0.0003
     53 C          63.1007   81.7926   13.5328 C.ar    1  UNL1       -0.0042
@<TRIPOS>UNITY_ATOM_ATTR
24 1
charge -1
@<TRIPOS>BOND
     1    19    20    1
     2    20    21    1
     3    20    14    1
     4    14    15   ar
     5    15    16   ar
     6    16    13    1
     7    13     7    1
     8     7     8    1
     9     7     9   am
    10     9    10    2
    11     9    11   am
    12    11     6    1
    13     6    22    1
    14    22    23    1
    15    23    24   ar
    16    23    25   ar
    17     6     2    1
    18     2     3    2
    19     2     4   am
    20     4     1    1
    21     1    26    1
    22    26    27    1
    23    28    27    1
    24    28    40    1
    25    40    41    1
    26    41    42   ar
    27    42    43   ar
    28    43    44   ar
    29    44    45   ar
    30    45    46   ar
    31    28    29    1
    32    29    30   am
    33    30    31    2
    34    30    33    1
    35    33    34    1
    36    34    35    1
    37    35    36   ar
    38    36    37   ar
    39    37    38   ar
    40    38    39   ar
    41     1    47    1
    42    47    48    1
    43    48    49   ar
    44    49    50   ar
    45    50    51   ar
    46    51    52   ar
    47    52    53   ar
    48    16    17   ar
    49    17    18   ar
    50    18    14   ar
    51    46    41   ar
    52    39    35   ar
    53    53    48   ar
    54    11    12    1
    55     4     5    1
    56    29    32    1
@<TRIPOS>MOLECULE
*****
 53 56 0 0 0
SMALL
GASTEIGER

@<TRIPOS>ATOM
      1 C          64.1987   89.8104   13.9347 C.3     1  UNL1        0.0760
      2 C          63.8553   87.2424   14.1280 C.2     1  UNL1        0.2407
      3 O          63.4600   87.1864   12.6821 O.2     1  UNL1       -0.2733
      4 N          64.2247   88.5544   14.7543 N.am    1  UNL1       -0.3043
      5 H          64.4841   88.5912   15.7033 H       1  UNL1        0.1494
      6 C          63.8812   85.9864   14.9476 C.3     1  UNL1        0.1553
      7 N          62.4919   82.4064   13.9457 N.am    1  UNL1       -0.2567
      8 C          61.3473   81.4984   14.2857 C.3     1  UNL1        0.1168
      9 C          62.6142   83.7424   14.6167 C.2     1  UNL1        0.3046
     10 O          61.5920   84.1705   15.6275 O.2     1  UNL1       -0.2526
     11 N          63.7588   84.6503   14.2767 N.am    1  UNL1       -0.2821
     12 H          64.4297   84.3694   13.6132 H       1  UNL1        0.1514
     13 C          63.5141   81.9784   12.9349 C.3     1  UNL1        0.1413
     14 C          63.2466   84.2858    9.8251 C.ar    1  UNL1        0.0875
     15 N          62.8109   83.8913   11.2052 N.ar    1  UNL1       -0.2453
     16 C          63.6214   82.7008   11.6246 C.ar    1  UNL1        0.0858
     17 C          64.5580   82.3595   10.5037 C.ar    1  UNL1        0.0530
     18 S          64.3263   83.3391    9.3916 S.2     1  UNL1       -0.0705
     19 C          62.1354   85.1770    7.6524 C.3     1  UNL1        0.0069
     20 C          62.6987   85.4266    9.0200 C.3     1  UNL1        0.0465
     21 C          62.7142   86.8171    9.5825 C.3     1  UNL1        0.0069
     22 C          64.0295   86.0664   16.4381 C.3     1  UNL1        0.0707
     23 C          63.0362   86.8436   17.2500 C.2     1  UNL1        0.0525
     24 O          63.1524   88.3358   17.3493 O.co2   1  UNL1       -0.5491
     25 O          61.9268   86.1287   17.9627 O.co2   1  UNL1       -0.5491
     26 C          62.8881   90.4495   13.5830 C.3     1  UNL1        0.0216
     27 C          61.9875   89.8058   12.5708 C.3     1  UNL1        0.0217
     28 C          62.0218   90.2583   11.1411 C.3     1  UNL1        0.0792
     29 N          63.3376   90.4788   10.4555 N.am    1  UNL1       -0.2720
     30 C          64.1650   91.6844   10.7904 C.2     1  UNL1        0.4019
     31 O          63.6765   92.6694   11.8108 O.2     1  UNL1       -0.2264
     32 H          63.6582   89.8323    9.7858 H       1  UNL1        0.1527
     33 O          65.4808   91.9050   10.1049 O.3     1  UNL1       -0.4291
     34 C          66.5415   92.7340   10.7664 C.3     1  UNL1        0.2447
     35 C          66.7475   94.1601   10.3494 C.ar    1  UNL1        0.0714
     36 C          67.5355   94.6261    9.1612 C.ar    1  UNL1        0.1053
     37 N          67.4768   96.1246    9.1248 N.ar    1  UNL1       -0.2350
     38 C          66.6525   96.5846   10.2905 C.ar    1  UNL1        0.1343
     39 S          66.2019   95.3705   11.0474 S.2     1  UNL1       -0.0652
     40 C          60.7402   90.4902   10.3969 C.3     1  UNL1        0.0460
     41 C          60.1793   89.4136    9.5157 C.ar    1  UNL1       -0.0205
     42 C          59.8316   88.0748   10.0959 C.ar    1  UNL1       -0.0042
     43 C          59.2707   86.9984    9.2147 C.ar    1  UNL1       -0.0003
     44 C          59.0574   87.2607    7.7533 C.ar    1  UNL1       -0.0000
     45 C          59.4051   88.5995    7.1730 C.ar    1  UNL1       -0.0003
     46 C          59.9661   89.6760    8.0543 C.ar    1  UNL1       -0.0042
     47 C          65.4835   90.4273   13.4668 C.3     1  UNL1        0.0459
     48 C          66.2514   91.3409   14.3754 C.ar    1  UNL1       -0.0205
     49 C          65.5810   91.9434   15.5743 C.ar    1  UNL1       -0.0042
     50 C          66.3488   92.8570   16.4830 C.ar    1  UNL1       -0.0003
     51 C          67.7872   93.1682   16.1927 C.ar    1  UNL1       -0.0000
     52 C          68.4577   92.5657   14.9937 C.ar    1  UNL1       -0.0003
     53 C          67.6898   91.6521   14.0850 C.ar    1  UNL1       -0.0042
@<TRIPOS>UNITY_ATOM_ATTR
24 1
charge -1
@<TRIPOS>BOND
     1    19    20    1
     2    20    21    1
     3    20    14    1
     4    14    15   ar
     5    15    16   ar
     6    16    13    1
     7    13     7    1
     8     7     8    1
     9     7     9   am
    10     9    10    2
    11     9    11   am
    12    11     6    1
    13     6    22    1
    14    22    23    1
    15    23    24   ar
    16    23    25   ar
    17     6     2    1
    18     2     3    2
    19     2     4   am
    20     4     1    1
    21     1    26    1
    22    26    27    1
    23    28    27    1
    24    28    40    1
    25    40    41    1
    26    41    42   ar
    27    42    43   ar
    28    43    44   ar
    29    44    45   ar
    30    45    46   ar
    31    28    29    1
    32    29    30   am
    33    30    31    2
    34    30    33    1
    35    33    34    1
    36    34    35    1
    37    35    36   ar
    38    36    37   ar
    39    37    38   ar
    40    38    39   ar
    41     1    47    1
    42    47    48    1
    43    48    49   ar
    44    49    50   ar
    45    50    51   ar
    46    51    52   ar
    47    52    53   ar
    48    16    17   ar
    49    17    18   ar
    50    18    14   ar
    51    46    41   ar
    52    39    35   ar
    53    53    48   ar
    54    11    12    1
    55     4     5    1
    56    29    32    1
@<TRIPOS>MOLECULE
*****
 53 56 0 0 0
SMALL
GASTEIGER

@<TRIPOS>ATOM
      1 C          64.3313   83.6001   12.4853 C.3     1  UNL1        0.0760
      2 C          63.6092   85.3491   14.2657 C.2     1  UNL1        0.2407
      3 O          62.1759   85.1683   13.8620 O.2     1  UNL1       -0.2733
      4 N          64.6869   84.5649   13.5774 N.am    1  UNL1       -0.3043
      5 H          65.6277   84.6836   13.8424 H       1  UNL1        0.1494
      6 C          63.9648   86.3139   15.3578 C.3     1  UNL1        0.1553
      7 N          64.3115   90.2662   15.2630 N.am    1  UNL1       -0.2567
      8 C          63.6545   91.4767   15.8573 C.3     1  UNL1        0.1168
      9 C          63.8097   88.8953   15.6076 C.2     1  UNL1        0.3046
     10 O          62.6509   88.7348   16.5464 O.2     1  UNL1       -0.2526
     11 N          64.4666   87.6849   15.0133 N.am    1  UNL1       -0.2821
     12 H          65.2272   87.7903   14.3971 H       1  UNL1        0.1514
     13 C          65.4703   90.4267   14.3241 C.3     1  UNL1        0.1413
     14 C          66.3320   93.7498   12.5130 C.ar    1  UNL1        0.0875
     15 N          65.7899   92.3513   12.4968 N.ar    1  UNL1       -0.2453
     16 C          65.8967   91.7966   13.8864 C.ar    1  UNL1        0.0858
     17 C          66.5048   92.8523   14.7614 C.ar    1  UNL1        0.0530
     18 S          66.7739   94.0595   13.9126 S.2     1  UNL1       -0.0705
     19 C          66.8779   94.1581   10.0059 C.3     1  UNL1        0.0069
     20 C          66.4173   94.6760   11.3362 C.3     1  UNL1        0.0465
     21 C          66.0419   96.1201   11.4897 C.3     1  UNL1        0.0069
     22 C          63.8187   85.9078   16.7943 C.3     1  UNL1        0.0707
     23 C          62.5295   86.1616   17.5181 C.2     1  UNL1        0.0525
     24 O          61.2209   85.9036   16.8319 O.co2   1  UNL1       -0.5491
     25 O          62.5491   86.6734   18.9279 O.co2   1  UNL1       -0.5491
     26 C          63.9054   84.1122   11.1414 C.3     1  UNL1        0.0216
     27 C          62.4732   84.4879   10.9014 C.3     1  UNL1        0.0217
     28 C          62.1199   85.8971   10.5279 C.3     1  UNL1        0.0792
     29 N          61.4155   86.7804   11.5146 N.am    1  UNL1       -0.2720
     30 C          60.1747   87.5188   11.1079 C.2     1  UNL1        0.4019
     31 O          59.6384   87.3738    9.7146 O.2     1  UNL1       -0.2264
     32 H          61.7674   86.8755   12.4291 H       1  UNL1        0.1527
     33 O          59.4702   88.4020   12.0946 O.3     1  UNL1       -0.4291
     34 C          59.9369   89.8118   12.3060 C.3     1  UNL1        0.2447
     35 C          61.2065   90.2859   11.6631 C.ar    1  UNL1        0.0714
     36 C          62.5113   90.5290   12.3618 C.ar    1  UNL1        0.1053
     37 N          63.5054   90.9935   11.3391 N.ar    1  UNL1       -0.2350
     38 C          62.8149   91.0375   10.0082 C.ar    1  UNL1        0.1343
     39 S          61.3942   90.6002   10.2084 S.2     1  UNL1       -0.0652
     40 C          62.4711   86.4230    9.1677 C.3     1  UNL1        0.0460
     41 C          62.1243   85.6282    7.9438 C.ar    1  UNL1       -0.0205
     42 C          60.6987   85.5402    7.4857 C.ar    1  UNL1       -0.0042
     43 C          60.3519   84.7454    6.2618 C.ar    1  UNL1       -0.0003
     44 C          61.4307   84.0386    5.4959 C.ar    1  UNL1       -0.0000
     45 C          62.8563   84.1265    5.9540 C.ar    1  UNL1       -0.0003
     46 C          63.2031   84.9213    7.1779 C.ar    1  UNL1       -0.0042
     47 C          64.4016   82.1230   12.7373 C.3     1  UNL1        0.0459
     48 C          63.1689   81.3724   13.1460 C.ar    1  UNL1       -0.0205
     49 C          62.1087   82.0565   13.9570 C.ar    1  UNL1       -0.0042
     50 C          60.8760   81.3059   14.3658 C.ar    1  UNL1       -0.0003
     51 C          60.7035   79.8712   13.9635 C.ar    1  UNL1       -0.0000
     52 C          61.7638   79.1870   13.1524 C.ar    1  UNL1       -0.0003
     53 C          62.9965   79.9376   12.7437 C.ar    1  UNL1       -0.0042
@<TRIPOS>UNITY_ATOM_ATTR
24 1
charge -1
@<TRIPOS>BOND
     1    19    20    1
     2    20    21    1
     3    20    14    1
     4    14    15   ar
     5    15    16   ar
     6    16    13    1
     7    13     7    1
     8     7     8    1
     9     7     9   am
    10     9    10    2
    11     9    11   am
    12    11     6    1
    13     6    22    1
    14    22    23    1
    15    23    24   ar
    16    23    25   ar
    17     6     2    1
    18     2     3    2
    19     2     4   am
    20     4     1    1
    21     1    26    1
    22    26    27    1
    23    28    27    1
    24    28    40    1
    25    40    41    1
    26    41    42   ar
    27    42    43   ar
    28    43    44   ar
    29    44    45   ar
    30    45    46   ar
    31    28    29    1
    32    29    30   am
    33    30    31    2
    34    30    33    1
    35    33    34    1
    36    34    35    1
    37    35    36   ar
    38    36    37   ar
    39    37    38   ar
    40    38    39   ar
    41     1    47    1
    42    47    48    1
    43    48    49   ar
    44    49    50   ar
    45    50    51   ar
    46    51    52   ar
    47    52    53   ar
    48    16    17   ar
    49    17    18   ar
    50    18    14   ar
    51    46    41   ar
    52    39    35   ar
    53    53    48   ar
    54    11    12    1
    55     4     5    1
    56    29    32    1
@<TRIPOS>MOLECULE
*****
 53 56 0 0 0
SMALL
GASTEIGER

@<TRIPOS>ATOM
      1 C          62.5671   90.4352   11.3417 C.3     1  UNL1        0.0760
      2 C          63.8519   90.4324   13.5999 C.2     1  UNL1        0.2407
      3 O          63.1795   91.7171   13.9840 O.2     1  UNL1       -0.2733
      4 N          63.5457   89.7915   12.2787 N.am    1  UNL1       -0.3043
      5 H          63.9870   88.9483   12.0266 H       1  UNL1        0.1494
      6 C          64.8304   89.7887   14.5369 C.3     1  UNL1        0.1553
      7 N          63.4750   86.4986   16.2941 N.am    1  UNL1       -0.2567
      8 C          62.4383   86.0954   17.3006 C.3     1  UNL1        0.1168
      9 C          63.6344   87.9420   15.9187 C.2     1  UNL1        0.3046
     10 O          62.7572   88.9824   16.5498 O.2     1  UNL1       -0.2526
     11 N          64.6710   88.3452   14.9123 N.am    1  UNL1       -0.2821
     12 H          65.2467   87.6624   14.4982 H       1  UNL1        0.1514
     13 C          64.3522   85.4582   15.6631 C.3     1  UNL1        0.1413
     14 C          62.7510   82.6091   13.5691 C.ar    1  UNL1        0.0875
     15 N          63.1794   83.1853   14.8861 N.ar    1  UNL1       -0.2453
     16 C          63.7895   84.5309   14.6269 C.ar    1  UNL1        0.0858
     17 C          63.7382   84.7863   13.1497 C.ar    1  UNL1        0.0530
     18 S          63.0964   83.5987   12.4960 S.2     1  UNL1       -0.0705
     19 C          62.6645   80.3039   12.3740 C.3     1  UNL1        0.0069
     20 C          62.0928   81.2773   13.3617 C.3     1  UNL1        0.0465
     21 C          60.8629   80.9190   14.1420 C.3     1  UNL1        0.0069
     22 C          65.9684   90.5884   15.0985 C.3     1  UNL1        0.0707
     23 C          66.5664   91.7068   14.2975 C.2     1  UNL1        0.0525
     24 O          65.8970   93.0488   14.2670 O.co2   1  UNL1       -0.5491
     25 O          67.8337   91.4832   13.5269 O.co2   1  UNL1       -0.5491
     26 C          61.0936   90.2511   11.5534 C.3     1  UNL1        0.0216
     27 C          60.1537   90.3215   10.3866 C.3     1  UNL1        0.0217
     28 C          60.2433   89.3032    9.2888 C.3     1  UNL1        0.0792
     29 N          60.4413   89.7461    7.8694 N.am    1  UNL1       -0.2720
     30 C          59.3873   89.4610    6.8408 C.2     1  UNL1        0.4019
     31 O          58.1354   88.7331    7.2317 O.2     1  UNL1       -0.2264
     32 H          61.2630   90.2239    7.6129 H       1  UNL1        0.1527
     33 O          59.5853   89.9039    5.4214 O.3     1  UNL1       -0.4291
     34 C          59.4564   91.3548    5.0636 C.3     1  UNL1        0.2447
     35 C          60.3235   91.9424    3.9898 C.ar    1  UNL1        0.0714
     36 C          61.7659   91.6133    3.7428 C.ar    1  UNL1        0.1053
     37 N          62.2342   92.4297    2.5748 N.ar    1  UNL1       -0.2350
     38 C          61.0812   93.2633    2.0999 C.ar    1  UNL1        0.1343
     39 S          59.9003   92.9621    2.9744 S.2     1  UNL1       -0.0652
     40 C          60.1350   87.8422    9.6104 C.3     1  UNL1        0.0460
     41 C          60.9478   86.8427    8.8419 C.ar    1  UNL1       -0.0205
     42 C          60.3351   86.1060    7.6879 C.ar    1  UNL1       -0.0042
     43 C          61.1480   85.1066    6.9196 C.ar    1  UNL1       -0.0003
     44 C          62.5736   84.8440    7.3052 C.ar    1  UNL1       -0.0000
     45 C          63.1863   85.5807    8.4591 C.ar    1  UNL1       -0.0003
     46 C          62.3734   86.5801    9.2275 C.ar    1  UNL1       -0.0042
     47 C          63.0621   91.2630   10.1928 C.3     1  UNL1        0.0459
     48 C          64.3057   92.0880   10.3439 C.ar    1  UNL1       -0.0205
     49 C          65.6413   91.4162   10.4648 C.ar    1  UNL1       -0.0042
     50 C          66.8849   92.2412   10.6158 C.ar    1  UNL1       -0.0003
     51 C          66.7929   93.7380   10.6460 C.ar    1  UNL1       -0.0000
     52 C          65.4572   94.4099   10.5250 C.ar    1  UNL1       -0.0003
     53 C          64.2136   93.5849   10.3740 C.ar    1  UNL1       -0.0042
@<TRIPOS>UNITY_ATOM_ATTR
24 1
charge -1
@<TRIPOS>BOND
     1    19    20    1
     2    20    21    1
     3    20    14    1
     4    14    15   ar
     5    15    16   ar
     6    16    13    1
     7    13     7    1
     8     7     8    1
     9     7     9   am
    10     9    10    2
    11     9    11   am
    12    11     6    1
    13     6    22    1
    14    22    23    1
    15    23    24   ar
    16    23    25   ar
    17     6     2    1
    18     2     3    2
    19     2     4   am
    20     4     1    1
    21     1    26    1
    22    26    27    1
    23    28    27    1
    24    28    40    1
    25    40    41    1
    26    41    42   ar
    27    42    43   ar
    28    43    44   ar
    29    44    45   ar
    30    45    46   ar
    31    28    29    1
    32    29    30   am
    33    30    31    2
    34    30    33    1
    35    33    34    1
    36    34    35    1
    37    35    36   ar
    38    36    37   ar
    39    37    38   ar
    40    38    39   ar
    41     1    47    1
    42    47    48    1
    43    48    49   ar
    44    49    50   ar
    45    50    51   ar
    46    51    52   ar
    47    52    53   ar
    48    16    17   ar
    49    17    18   ar
    50    18    14   ar
    51    46    41   ar
    52    39    35   ar
    53    53    48   ar
    54    11    12    1
    55     4     5    1
    56    29    32    1
@<TRIPOS>MOLECULE
*****
 53 56 0 0 0
SMALL
GASTEIGER

@<TRIPOS>ATOM
      1 C          62.0933   88.0486   11.7520 C.3     1  UNL1        0.0760
      2 C          63.5680   89.8620   12.8865 C.2     1  UNL1        0.2407
      3 O          63.4822   90.7058   11.6493 O.2     1  UNL1       -0.2733
      4 N          62.8735   88.5334   12.9378 N.am    1  UNL1       -0.3043
      5 H          62.9299   87.9795   13.7498 H       1  UNL1        0.1494
      6 C          64.3483   90.3467   14.0723 C.3     1  UNL1        0.1553
      7 N          67.1497   93.1295   14.4695 N.am    1  UNL1       -0.2567
      8 C          68.5574   93.2579   14.9716 C.3     1  UNL1        0.1168
      9 C          66.4528   91.8023   14.5219 C.2     1  UNL1        0.3046
     10 O          67.1636   90.6034   15.0765 O.2     1  UNL1       -0.2526
     11 N          65.0452   91.6740   14.0198 N.am    1  UNL1       -0.2821
     12 H          64.5788   92.4609   13.6559 H       1  UNL1        0.1514
     13 C          66.4390   94.3284   13.9149 C.3     1  UNL1        0.1413
     14 C          67.1078   94.5411   10.0974 C.ar    1  UNL1        0.0875
     15 N          67.1918   93.8080   11.4034 N.ar    1  UNL1       -0.2453
     16 C          66.5697   94.6715   12.4605 C.ar    1  UNL1        0.0858
     17 C          66.1013   95.9382   11.8078 C.ar    1  UNL1        0.0530
     18 S          66.4338   95.8577   10.3474 S.2     1  UNL1       -0.0705
     19 C          68.4045   92.7747    8.7015 C.3     1  UNL1        0.0069
     20 C          67.6097   94.0448    8.7739 C.3     1  UNL1        0.0465
     21 C          67.3169   94.8186    7.5227 C.3     1  UNL1        0.0069
     22 C          64.4316   89.5043   15.3105 C.3     1  UNL1        0.0707
     23 C          63.3611   89.6007   16.3568 C.2     1  UNL1        0.0525
     24 O          62.6436   88.3646   16.8119 O.co2   1  UNL1       -0.5491
     25 O          63.0079   90.9333   16.9479 O.co2   1  UNL1       -0.5491
     26 C          61.0066   88.9027   11.1692 C.3     1  UNL1        0.0216
     27 C          61.1610   89.4764    9.7919 C.3     1  UNL1        0.0217
     28 C          60.4105   88.8753    8.6406 C.3     1  UNL1        0.0792
     29 N          60.0910   89.7100    7.4359 N.am    1  UNL1       -0.2720
     30 C          58.8603   89.4212    6.6283 C.2     1  UNL1        0.4019
     31 O          57.9492   88.2978    7.0254 O.2     1  UNL1       -0.2264
     32 H          60.6890   90.4473    7.1753 H       1  UNL1        0.1527
     33 O          58.5408   90.2559    5.4237 O.3     1  UNL1       -0.4291
     34 C          59.0714   91.6550    5.3185 C.3     1  UNL1        0.2447
     35 C          60.0617   92.0030    4.2470 C.ar    1  UNL1        0.0714
     36 C          61.4932   91.5582    4.1913 C.ar    1  UNL1        0.1053
     37 N          62.1106   92.1372    2.9529 N.ar    1  UNL1       -0.2350
     38 C          61.0607   92.9398    2.2432 C.ar    1  UNL1        0.1343
     39 S          59.7945   92.8568    3.0430 S.2     1  UNL1       -0.0652
     40 C          59.9795   87.4395    8.6939 C.3     1  UNL1        0.0460
     41 C          60.8094   86.3821    8.0281 C.ar    1  UNL1       -0.0205
     42 C          60.2229   85.5531    6.9242 C.ar    1  UNL1       -0.0042
     43 C          61.0528   84.4957    6.2584 C.ar    1  UNL1       -0.0003
     44 C          62.4690   84.2674    6.6966 C.ar    1  UNL1       -0.0000
     45 C          63.0555   85.0964    7.8005 C.ar    1  UNL1       -0.0003
     46 C          62.2257   86.1538    8.4663 C.ar    1  UNL1       -0.0042
     47 C          62.3997   86.7097   11.1490 C.3     1  UNL1        0.0459
     48 C          62.8485   85.5777   12.0248 C.ar    1  UNL1       -0.0205
     49 C          63.5073   85.8640   13.3417 C.ar    1  UNL1       -0.0042
     50 C          63.9561   84.7320   14.2175 C.ar    1  UNL1       -0.0003
     51 C          63.7463   83.3137   13.7765 C.ar    1  UNL1       -0.0000
     52 C          63.0875   83.0274   12.4596 C.ar    1  UNL1       -0.0003
     53 C          62.6386   84.1594   11.5838 C.ar    1  UNL1       -0.0042
@<TRIPOS>UNITY_ATOM_ATTR
24 1
charge -1
@<TRIPOS>BOND
     1    19    20    1
     2    20    21    1
     3    20    14    1
     4    14    15   ar
     5    15    16   ar
     6    16    13    1
     7    13     7    1
     8     7     8    1
     9     7     9   am
    10     9    10    2
    11     9    11   am
    12    11     6    1
    13     6    22    1
    14    22    23    1
    15    23    24   ar
    16    23    25   ar
    17     6     2    1
    18     2     3    2
    19     2     4   am
    20     4     1    1
    21     1    26    1
    22    26    27    1
    23    28    27    1
    24    28    40    1
    25    40    41    1
    26    41    42   ar
    27    42    43   ar
    28    43    44   ar
    29    44    45   ar
    30    45    46   ar
    31    28    29    1
    32    29    30   am
    33    30    31    2
    34    30    33    1
    35    33    34    1
    36    34    35    1
    37    35    36   ar
    38    36    37   ar
    39    37    38   ar
    40    38    39   ar
    41     1    47    1
    42    47    48    1
    43    48    49   ar
    44    49    50   ar
    45    50    51   ar
    46    51    52   ar
    47    52    53   ar
    48    16    17   ar
    49    17    18   ar
    50    18    14   ar
    51    46    41   ar
    52    39    35   ar
    53    53    48   ar
    54    11    12    1
    55     4     5    1
    56    29    32    1
@<TRIPOS>MOLECULE
*****
 53 56 0 0 0
SMALL
GASTEIGER

@<TRIPOS>ATOM
      1 C          61.4015   88.9665   11.4796 C.3     1  UNL1        0.0760
      2 C          62.4130   86.8942   10.2827 C.2     1  UNL1        0.2407
      3 O          62.8257   87.7612    9.1304 O.2     1  UNL1       -0.2733
      4 N          61.7009   87.4969   11.4574 N.am    1  UNL1       -0.3043
      5 H          61.4300   86.9278   12.2138 H       1  UNL1        0.1494
      6 C          62.7124   85.4246   10.2605 C.3     1  UNL1        0.1553
      7 N          62.8618   82.3708   12.7908 N.am    1  UNL1       -0.2567
      8 C          63.3601   80.9566   12.8331 C.3     1  UNL1        0.1168
      9 C          63.0363   83.1906   11.5468 C.2     1  UNL1        0.3046
     10 O          63.7090   82.5962   10.3451 O.2     1  UNL1       -0.2526
     11 N          62.5380   84.6047   11.5045 N.am    1  UNL1       -0.2821
     12 H          62.0964   84.9948   12.2933 H       1  UNL1        0.1514
     13 C          62.1891   82.9652   13.9925 C.3     1  UNL1        0.1413
     14 C          63.1991   85.9730   16.2283 C.ar    1  UNL1        0.0875
     15 N          62.1759   84.9951   15.7316 N.ar    1  UNL1       -0.2453
     16 C          62.8429   84.0909   14.7378 C.ar    1  UNL1        0.0858
     17 C          64.2783   84.5100   14.6203 C.ar    1  UNL1        0.0530
     18 S          64.4985   85.6732   15.5414 S.2     1  UNL1       -0.0705
     19 C          63.0110   88.4979   16.8109 C.3     1  UNL1        0.0069
     20 C          62.9643   87.0599   17.2350 C.3     1  UNL1        0.0465
     21 C          62.6827   86.7087   18.6659 C.3     1  UNL1        0.0069
     22 C          63.1862   84.7747    8.9943 C.3     1  UNL1        0.0707
     23 C          62.3618   84.8760    7.7453 C.2     1  UNL1        0.0525
     24 O          62.9692   84.5379    6.4162 O.co2   1  UNL1       -0.5491
     25 O          60.9298   85.3154    7.8254 O.co2   1  UNL1       -0.5491
     26 C          62.3373   89.9122   12.1724 C.3     1  UNL1        0.0216
     27 C          63.2292   90.8094   11.3666 C.3     1  UNL1        0.0217
     28 C          64.4185   91.4589   12.0099 C.3     1  UNL1        0.0792
     29 N          64.3146   91.9990   13.4054 N.am    1  UNL1       -0.2720
     30 C          64.5767   91.1016   14.5784 C.2     1  UNL1        0.4019
     31 O          64.9428   89.6641   14.3560 O.2     1  UNL1       -0.2264
     32 H          64.0744   92.9425   13.5514 H       1  UNL1        0.1527
     33 O          64.4728   91.6417   15.9740 O.3     1  UNL1       -0.4291
     34 C          65.4554   92.6673   16.4563 C.3     1  UNL1        0.2447
     35 C          66.8312   92.7259   15.8615 C.ar    1  UNL1        0.0714
     36 C          67.2022   93.3724   14.5598 C.ar    1  UNL1        0.1053
     37 N          68.6778   93.1943   14.3578 N.ar    1  UNL1       -0.2350
     38 C          69.2188   92.4377   15.5345 C.ar    1  UNL1        0.1343
     39 S          68.0776   92.1482   16.4639 S.2     1  UNL1       -0.0652
     40 C          65.7116   91.5681   11.2577 C.3     1  UNL1        0.0460
     41 C          66.1672   92.8997   10.7385 C.ar    1  UNL1       -0.0205
     42 C          65.4337   94.1482   11.1301 C.ar    1  UNL1       -0.0042
     43 C          65.8892   95.4796   10.6109 C.ar    1  UNL1       -0.0003
     44 C          67.0782   95.5627    9.7002 C.ar    1  UNL1       -0.0000
     45 C          67.8117   94.3142    9.3086 C.ar    1  UNL1       -0.0003
     46 C          67.3562   92.9827    9.8278 C.ar    1  UNL1       -0.0042
     47 C          60.1662   89.4905   10.8090 C.3     1  UNL1        0.0459
     48 C          59.8088   89.0272    9.4279 C.ar    1  UNL1       -0.0205
     49 C          60.0925   89.9053    8.2454 C.ar    1  UNL1       -0.0042
     50 C          59.7351   89.4421    6.8642 C.ar    1  UNL1       -0.0003
     51 C          59.0938   88.1007    6.6656 C.ar    1  UNL1       -0.0000
     52 C          58.8100   87.2225    7.8481 C.ar    1  UNL1       -0.0003
     53 C          59.1675   87.6858    9.2293 C.ar    1  UNL1       -0.0042
@<TRIPOS>UNITY_ATOM_ATTR
24 1
charge -1
@<TRIPOS>BOND
     1    19    20    1
     2    20    21    1
     3    20    14    1
     4    14    15   ar
     5    15    16   ar
     6    16    13    1
     7    13     7    1
     8     7     8    1
     9     7     9   am
    10     9    10    2
    11     9    11   am
    12    11     6    1
    13     6    22    1
    14    22    23    1
    15    23    24   ar
    16    23    25   ar
    17     6     2    1
    18     2     3    2
    19     2     4   am
    20     4     1    1
    21     1    26    1
    22    26    27    1
    23    28    27    1
    24    28    40    1
    25    40    41    1
    26    41    42   ar
    27    42    43   ar
    28    43    44   ar
    29    44    45   ar
    30    45    46   ar
    31    28    29    1
    32    29    30   am
    33    30    31    2
    34    30    33    1
    35    33    34    1
    36    34    35    1
    37    35    36   ar
    38    36    37   ar
    39    37    38   ar
    40    38    39   ar
    41     1    47    1
    42    47    48    1
    43    48    49   ar
    44    49    50   ar
    45    50    51   ar
    46    51    52   ar
    47    52    53   ar
    48    16    17   ar
    49    17    18   ar
    50    18    14   ar
    51    46    41   ar
    52    39    35   ar
    53    53    48   ar
    54    11    12    1
    55     4     5    1
    56    29    32    1
@<TRIPOS>MOLECULE
*****
 53 56 0 0 0
SMALL
GASTEIGER

@<TRIPOS>ATOM
      1 C          63.0001   90.8383   10.6918 C.3     1  UNL1        0.0760
      2 C          63.3696   89.9256   13.0961 C.2     1  UNL1        0.2407
      3 O          63.0138   91.2689   13.6607 O.2     1  UNL1       -0.2733
      4 N          63.3627   89.7103   11.6116 N.am    1  UNL1       -0.3043
      5 H          63.5963   88.8286   11.2410 H       1  UNL1        0.1494
      6 C          63.7323   88.7976   14.0159 C.3     1  UNL1        0.1553
      7 N          63.8789   84.8328   13.9218 N.am    1  UNL1       -0.2567
      8 C          64.5383   83.7047   14.6585 C.3     1  UNL1        0.1168
      9 C          64.1353   86.2511   14.3372 C.2     1  UNL1        0.3046
     10 O          65.0511   86.5414   15.4892 O.2     1  UNL1       -0.2526
     11 N          63.4759   87.3792   13.6006 N.am    1  UNL1       -0.2821
     12 H          62.8748   87.1886   12.8445 H       1  UNL1        0.1514
     13 C          62.9631   84.5425   12.7699 C.3     1  UNL1        0.1413
     14 C          63.1024   81.0362   11.1110 C.ar    1  UNL1        0.0875
     15 N          62.6395   81.9495   12.2071 N.ar    1  UNL1       -0.2453
     16 C          63.1810   83.3202   11.9281 C.ar    1  UNL1        0.0858
     17 C          63.9786   83.2541   10.6595 C.ar    1  UNL1        0.0530
     18 S          63.9301   81.8425   10.1545 S.2     1  UNL1       -0.0705
     19 C          62.8037   78.9112    9.6463 C.3     1  UNL1        0.0069
     20 C          62.7922   79.5734   10.9922 C.3     1  UNL1        0.0465
     21 C          62.4705   78.7730   12.2192 C.3     1  UNL1        0.0069
     22 C          64.3513   89.0879   15.3510 C.3     1  UNL1        0.0707
     23 C          63.4790   89.4094   16.5282 C.2     1  UNL1        0.0525
     24 O          63.1079   90.8331   16.8202 O.co2   1  UNL1       -0.5491
     25 O          62.9777   88.3071   17.4134 O.co2   1  UNL1       -0.5491
     26 C          61.5588   91.1350   10.4009 C.3     1  UNL1        0.0216
     27 C          60.5341   90.0440   10.4981 C.3     1  UNL1        0.0217
     28 C          60.2861   89.1414    9.3259 C.3     1  UNL1        0.0792
     29 N          60.2095   89.7138    7.9416 N.am    1  UNL1       -0.2720
     30 C          59.1340   89.2585    7.0002 C.2     1  UNL1        0.4019
     31 O          58.1352   88.2308    7.4431 O.2     1  UNL1       -0.2264
     32 H          60.8651   90.3883    7.6508 H       1  UNL1        0.1527
     33 O          59.0574   89.8309    5.6158 O.3     1  UNL1       -0.4291
     34 C          59.2237   91.3065    5.4041 C.3     1  UNL1        0.2447
     35 C          60.1193   91.8113    4.3118 C.ar    1  UNL1        0.0714
     36 C          61.5510   91.4203    4.0942 C.ar    1  UNL1        0.1053
     37 N          62.0570   92.1630    2.8932 N.ar    1  UNL1       -0.2350
     38 C          60.9379   93.0130    2.3685 C.ar    1  UNL1        0.1343
     39 S          59.7404   92.7956    3.2452 S.2     1  UNL1       -0.0652
     40 C          60.1147   87.6664    9.5382 C.3     1  UNL1        0.0460
     41 C          60.9495   86.6944    8.7580 C.ar    1  UNL1       -0.0205
     42 C          62.3903   86.4850    9.1185 C.ar    1  UNL1       -0.0042
     43 C          63.2250   85.5131    8.3384 C.ar    1  UNL1       -0.0003
     44 C          62.6188   84.7505    7.1978 C.ar    1  UNL1       -0.0000
     45 C          61.1779   84.9599    6.8373 C.ar    1  UNL1       -0.0003
     46 C          60.3432   85.9318    7.6175 C.ar    1  UNL1       -0.0042
     47 C          64.0787   91.6696   10.0629 C.3     1  UNL1        0.0459
     48 C          64.8883   92.6100   10.9057 C.ar    1  UNL1       -0.0205
     49 C          65.3165   92.2024   12.2842 C.ar    1  UNL1       -0.0042
     50 C          66.1260   93.1428   13.1269 C.ar    1  UNL1       -0.0003
     51 C          66.5073   94.4909   12.5912 C.ar    1  UNL1       -0.0000
     52 C          66.0792   94.8987   11.2125 C.ar    1  UNL1       -0.0003
     53 C          65.2696   93.9582   10.3698 C.ar    1  UNL1       -0.0042
@<TRIPOS>UNITY_ATOM_ATTR
24 1
charge -1
@<TRIPOS>BOND
     1    19    20    1
     2    20    21    1
     3    20    14    1
     4    14    15   ar
     5    15    16   ar
     6    16    13    1
     7    13     7    1
     8     7     8    1
     9     7     9   am
    10     9    10    2
    11     9    11   am
    12    11     6    1
    13     6    22    1
    14    22    23    1
    15    23    24   ar
    16    23    25   ar
    17     6     2    1
    18     2     3    2
    19     2     4   am
    20     4     1    1
    21     1    26    1
    22    26    27    1
    23    28    27    1
    24    28    40    1
    25    40    41    1
    26    41    42   ar
    27    42    43   ar
    28    43    44   ar
    29    44    45   ar
    30    45    46   ar
    31    28    29    1
    32    29    30   am
    33    30    31    2
    34    30    33    1
    35    33    34    1
    36    34    35    1
    37    35    36   ar
    38    36    37   ar
    39    37    38   ar
    40    38    39   ar
    41     1    47    1
    42    47    48    1
    43    48    49   ar
    44    49    50   ar
    45    50    51   ar
    46    51    52   ar
    47    52    53   ar
    48    16    17   ar
    49    17    18   ar
    50    18    14   ar
    51    46    41   ar
    52    39    35   ar
    53    53    48   ar
    54    11    12    1
    55     4     5    1
    56    29    32    1
