@<TRIPOS>MOLECULE
*****
 49 53 0 0 0
SMALL
GASTEIGER

@<TRIPOS>ATOM
      1 N          59.8070   88.6694    7.9040 N.am    1  UNL1       -0.2738
      2 C          60.3676   88.9259    9.2715 C.2     1  UNL1        0.2490
      3 O          59.9652   90.1568   10.0283 O.2     1  UNL1       -0.2727
      4 C          60.2095   87.4384    7.1472 C.3     1  UNL1        0.0952
      5 C          59.8292   86.0825    7.6639 C.3     1  UNL1        0.0388
      6 C          60.5579   84.8640    7.1800 C.3     1  UNL1        0.0739
      7 N          62.0443   84.9081    6.9826 N.3     1  UNL1       -0.2726
      8 C          63.6997   84.2494    8.8735 C.3     1  UNL1        0.0188
      9 C          62.9406   85.3007    8.1195 C.3     1  UNL1        0.0721
     10 C          62.6343   84.5596    5.6483 C.3     1  UNL1        0.0721
     11 C          61.7496   84.0618    4.5440 C.3     1  UNL1        0.0188
     12 C          58.8441   89.6439    7.2933 C.3     1  UNL1        0.1202
     13 C          59.2496   90.4470    6.0930 C.ar    1  UNL1       -0.0023
     14 C          60.6831   90.4644    5.6517 C.ar    1  UNL1       -0.0026
     15 C          61.0886   91.2674    4.4515 C.ar    1  UNL1       -0.0003
     16 C          60.0607   92.0531    3.6926 C.ar    1  UNL1       -0.0000
     17 C          58.6272   92.0357    4.1339 C.ar    1  UNL1       -0.0003
     18 C          58.2217   91.2327    5.3341 C.ar    1  UNL1       -0.0026
     19 C          60.4663   92.8562    2.4923 C.ar    1  UNL1        0.0001
     20 C          61.9118   93.1846    2.2632 C.ar    1  UNL1        0.0009
     21 C          62.3174   93.9877    1.0629 C.ar    1  UNL1        0.0114
     22 C          61.2774   94.4624    0.0918 C.ar    1  UNL1        0.0577
     23 CL         61.6829   95.2654   -1.1085 Cl      1  UNL1       -0.0822
     24 C          59.8318   94.1339    0.3209 C.ar    1  UNL1        0.0114
     25 C          59.4263   93.3308    1.5211 C.ar    1  UNL1        0.0009
     26 C          61.3306   87.9513    9.8822 C.3     1  UNL1        0.1934
     27 N          62.1898   88.3703   11.0382 N.ar    1  UNL1       -0.2979
     28 C          62.5520   89.8147   11.2186 C.ar    1  UNL1        0.0786
     29 C          63.4112   90.2337   12.3746 C.ar    1  UNL1        0.0574
     30 C          63.9080   89.2083   13.3502 C.ar    1  UNL1        0.2786
     31 O          64.7672   89.6273   14.5062 O.2     1  UNL1       -0.2654
     32 N          63.5458   87.7639   13.1697 N.ar    1  UNL1       -0.1847
     33 C          62.6866   87.3450   12.0137 C.ar    1  UNL1        0.1750
     34 C          63.7734   91.6780   12.5551 C.3     1  UNL1        0.0622
     35 C          65.0874   92.1912   12.0447 C.ar    1  UNL1        0.0220
     36 C          66.3494   92.3313   12.8433 C.ar    1  UNL1        0.1177
     37 N          67.4119   92.8810   11.9384 N.ar    1  UNL1       -0.1679
     38 N          66.8066   93.0806   10.5805 N.ar    1  UNL1       -0.2477
     39 C          67.5137   93.6130    9.3695 C.3     1  UNL1        0.1537
     40 C          65.3699   92.6542   10.6463 C.ar    1  UNL1        0.0927
     41 S          62.3244   85.9006   11.8333 S.3     1  UNL1       -0.0724
     42 C          63.3450   84.8330   12.0953 C.3     1  UNL1        0.0913
     43 C          62.9056   83.4652   12.5269 C.ar    1  UNL1       -0.0108
     44 C          63.0670   82.2980   11.5988 C.ar    1  UNL1       -0.0011
     45 C          62.6277   80.9302   12.0304 C.ar    1  UNL1        0.0293
     46 C          62.0270   80.7297   13.3901 C.ar    1  UNL1        0.1401
     47 F          61.5877   79.3620   13.8217 F       1  UNL1       -0.2042
     48 C          61.8656   81.8970   14.3183 C.ar    1  UNL1        0.0293
     49 C          62.3049   83.2648   13.8867 C.ar    1  UNL1       -0.0011
@<TRIPOS>BOND
     1     8     9    1
     2     9     7    1
     3     7    10    1
     4    10    11    1
     5     7     6    1
     6     6     5    1
     7     5     4    1
     8     4     1    1
     9     1    12    1
    10    12    13    1
    11    13    14   ar
    12    14    15   ar
    13    15    16   ar
    14    16    19    1
    15    19    20   ar
    16    20    21   ar
    17    21    22   ar
    18    22    23    1
    19    22    24   ar
    20    24    25   ar
    21    16    17   ar
    22    17    18   ar
    23     1     2   am
    24     2     3    2
    25     2    26    1
    26    26    27    1
    27    27    28   ar
    28    28    29   ar
    29    29    34    1
    30    34    35    1
    31    35    36   ar
    32    36    37   ar
    33    37    38   ar
    34    38    39    1
    35    38    40   ar
    36    29    30   ar
    37    30    31    2
    38    30    32   ar
    39    32    33   ar
    40    33    41    1
    41    41    42    1
    42    42    43    1
    43    43    44   ar
    44    44    45   ar
    45    45    46   ar
    46    46    47    1
    47    46    48   ar
    48    48    49   ar
    49    18    13   ar
    50    33    27   ar
    51    49    43   ar
    52    25    19   ar
    53    40    35   ar
@<TRIPOS>MOLECULE
*****
 49 53 0 0 0
SMALL
GASTEIGER

@<TRIPOS>ATOM
      1 N          61.8777   87.2483   11.7116 N.am    1  UNL1       -0.2738
      2 C          62.3091   88.4444   12.5074 C.2     1  UNL1        0.2490
      3 O          61.4080   89.6387   12.6146 O.2     1  UNL1       -0.2727
      4 C          62.7789   86.0540   11.6044 C.3     1  UNL1        0.0952
      5 C          62.2018   84.7042   11.2963 C.3     1  UNL1        0.0388
      6 C          62.3488   83.5830   12.2817 C.3     1  UNL1        0.0739
      7 N          62.7339   82.2130   11.8072 N.3     1  UNL1       -0.2726
      8 C          64.6898   82.9733   10.2756 C.3     1  UNL1        0.0188
      9 C          63.5380   82.0529   10.5512 C.3     1  UNL1        0.0721
     10 C          62.3148   81.0033   12.5889 C.3     1  UNL1        0.0721
     11 C          61.4163   81.1545   13.7804 C.3     1  UNL1        0.0188
     12 C          60.5452   87.2466   11.0229 C.3     1  UNL1        0.1202
     13 C          60.3452   88.0533    9.7742 C.ar    1  UNL1       -0.0023
     14 C          59.6783   87.4357    8.5810 C.ar    1  UNL1       -0.0026
     15 C          59.4783   88.2425    7.3324 C.ar    1  UNL1       -0.0003
     16 C          59.9453   89.6668    7.2769 C.ar    1  UNL1       -0.0000
     17 C          60.6123   90.2845    8.4701 C.ar    1  UNL1       -0.0003
     18 C          60.8122   89.4777    9.7187 C.ar    1  UNL1       -0.0026
     19 C          59.7454   90.4736    6.0282 C.ar    1  UNL1        0.0001
     20 C          58.3707   90.9367    5.6466 C.ar    1  UNL1        0.0009
     21 C          58.1707   91.7434    4.3978 C.ar    1  UNL1        0.0114
     22 C          59.3455   92.0870    3.5308 C.ar    1  UNL1        0.0577
     23 CL         59.1456   92.8937    2.2821 Cl      1  UNL1       -0.0822
     24 C          60.7202   91.6239    3.9124 C.ar    1  UNL1        0.0114
     25 C          60.9202   90.8172    5.1611 C.ar    1  UNL1        0.0009
     26 C          63.6418   88.4460   13.1961 C.3     1  UNL1        0.1934
     27 N          64.0331   89.6010   14.0696 N.ar    1  UNL1       -0.2979
     28 C          64.9640   90.6548   13.5471 C.ar    1  UNL1        0.0786
     29 C          65.3554   91.8097   14.4206 C.ar    1  UNL1        0.0574
     30 C          64.8158   91.9108   15.8166 C.ar    1  UNL1        0.2786
     31 O          65.2071   93.0657   16.6901 O.2     1  UNL1       -0.2654
     32 N          63.8849   90.8570   16.3390 N.ar    1  UNL1       -0.1847
     33 C          63.4936   89.7021   15.4655 C.ar    1  UNL1        0.1750
     34 C          66.2863   92.8635   13.8982 C.3     1  UNL1        0.0622
     35 C          66.5440   92.9728   12.4245 C.ar    1  UNL1        0.0220
     36 C          65.7535   93.7944   11.4498 C.ar    1  UNL1        0.1177
     37 N          66.3584   93.6091   10.0897 N.ar    1  UNL1       -0.1679
     38 N          67.5228   92.6730   10.2239 N.ar    1  UNL1       -0.2477
     39 C          68.4157   92.2113    9.1106 C.3     1  UNL1        0.1537
     40 C          67.6375   92.2798   11.6669 C.ar    1  UNL1        0.0927
     41 S          62.5627   88.6483   15.9879 S.3     1  UNL1       -0.0724
     42 C          63.0938   87.5340   16.8402 C.3     1  UNL1        0.0913
     43 C          63.4533   86.2183   16.2160 C.ar    1  UNL1       -0.0108
     44 C          64.6695   86.1089   15.3447 C.ar    1  UNL1       -0.0011
     45 C          65.0290   84.7932   14.7205 C.ar    1  UNL1        0.0293
     46 C          64.1724   83.5869   14.9675 C.ar    1  UNL1        0.1401
     47 F          64.5319   82.2712   14.3432 F       1  UNL1       -0.2042
     48 C          62.9562   83.6963   15.8387 C.ar    1  UNL1        0.0293
     49 C          62.5967   85.0120   16.4630 C.ar    1  UNL1       -0.0011
@<TRIPOS>BOND
     1     8     9    1
     2     9     7    1
     3     7    10    1
     4    10    11    1
     5     7     6    1
     6     6     5    1
     7     5     4    1
     8     4     1    1
     9     1    12    1
    10    12    13    1
    11    13    14   ar
    12    14    15   ar
    13    15    16   ar
    14    16    19    1
    15    19    20   ar
    16    20    21   ar
    17    21    22   ar
    18    22    23    1
    19    22    24   ar
    20    24    25   ar
    21    16    17   ar
    22    17    18   ar
    23     1     2   am
    24     2     3    2
    25     2    26    1
    26    26    27    1
    27    27    28   ar
    28    28    29   ar
    29    29    34    1
    30    34    35    1
    31    35    36   ar
    32    36    37   ar
    33    37    38   ar
    34    38    39    1
    35    38    40   ar
    36    29    30   ar
    37    30    31    2
    38    30    32   ar
    39    32    33   ar
    40    33    41    1
    41    41    42    1
    42    42    43    1
    43    43    44   ar
    44    44    45   ar
    45    45    46   ar
    46    46    47    1
    47    46    48   ar
    48    48    49   ar
    49    18    13   ar
    50    33    27   ar
    51    49    43   ar
    52    25    19   ar
    53    40    35   ar
@<TRIPOS>MOLECULE
*****
 49 53 0 0 0
SMALL
GASTEIGER

@<TRIPOS>ATOM
      1 N          61.8129   87.3387   11.5747 N.am    1  UNL1       -0.2738
      2 C          62.2430   88.4928   12.4309 C.2     1  UNL1        0.2490
      3 O          61.3415   89.6800   12.5975 O.2     1  UNL1       -0.2727
      4 C          62.7145   86.1515   11.4081 C.3     1  UNL1        0.0952
      5 C          62.6570   85.0220   12.3934 C.3     1  UNL1        0.0388
      6 C          62.0663   83.7037   11.9895 C.3     1  UNL1        0.0739
      7 N          62.9438   82.4926   11.8734 N.3     1  UNL1       -0.2726
      8 C          61.5869   81.1156   13.6090 C.3     1  UNL1        0.0188
      9 C          62.4691   81.1696   12.3971 C.3     1  UNL1        0.0721
     10 C          64.2958   82.6047   11.2336 C.3     1  UNL1        0.0721
     11 C          64.4298   83.1971    9.8621 C.3     1  UNL1        0.0188
     12 C          60.4813   87.3718   10.8850 C.3     1  UNL1        0.1202
     13 C          60.3051   88.1785    9.6327 C.ar    1  UNL1       -0.0023
     14 C          60.9900   89.5057    9.4929 C.ar    1  UNL1       -0.0026
     15 C          60.8138   90.3123    8.2406 C.ar    1  UNL1       -0.0003
     16 C          59.9527   89.7917    7.1281 C.ar    1  UNL1       -0.0000
     17 C          59.2679   88.4646    7.2679 C.ar    1  UNL1       -0.0003
     18 C          59.4441   87.6580    8.5202 C.ar    1  UNL1       -0.0026
     19 C          59.7766   90.5984    5.8757 C.ar    1  UNL1        0.0001
     20 C          60.9730   90.9833    5.0570 C.ar    1  UNL1        0.0009
     21 C          60.7968   91.7899    3.8046 C.ar    1  UNL1        0.0114
     22 C          59.4242   92.2117    3.3711 C.ar    1  UNL1        0.0577
     23 CL         59.2480   93.0184    2.1188 Cl      1  UNL1       -0.0822
     24 C          58.2277   91.8269    4.1899 C.ar    1  UNL1        0.0114
     25 C          58.4039   91.0202    5.4422 C.ar    1  UNL1        0.0009
     26 C          63.5747   88.4596   13.1206 C.3     1  UNL1        0.1934
     27 N          63.9925   89.6006   14.0001 N.ar    1  UNL1       -0.2979
     28 C          64.9234   90.6521   13.4729 C.ar    1  UNL1        0.0786
     29 C          65.3412   91.7931   14.3524 C.ar    1  UNL1        0.0574
     30 C          64.8279   91.8827   15.7591 C.ar    1  UNL1        0.2786
     31 O          65.2457   93.0238   16.6386 O.2     1  UNL1       -0.2654
     32 N          63.8970   90.8313   16.2862 N.ar    1  UNL1       -0.1847
     33 C          63.4793   89.6903   15.4067 C.ar    1  UNL1        0.1750
     34 C          66.2721   92.8445   13.8253 C.3     1  UNL1        0.0622
     35 C          66.5382   92.9404   12.3522 C.ar    1  UNL1        0.0220
     36 C          65.7197   93.7074   11.3564 C.ar    1  UNL1        0.1177
     37 N          66.3452   93.5271   10.0050 N.ar    1  UNL1       -0.1679
     38 N          67.5504   92.6485   10.1656 N.ar    1  UNL1       -0.2477
     39 C          68.4741   92.2096    9.0683 C.3     1  UNL1        0.1537
     40 C          67.6697   92.2859   11.6162 C.ar    1  UNL1        0.0927
     41 S          62.5484   88.6389   15.9338 S.3     1  UNL1       -0.0724
     42 C          63.0721   87.5519   16.8251 C.3     1  UNL1        0.0913
     43 C          63.4349   86.2167   16.2458 C.ar    1  UNL1       -0.0108
     44 C          62.5350   85.0362   16.4612 C.ar    1  UNL1       -0.0011
     45 C          62.8977   83.7010   15.8819 C.ar    1  UNL1        0.0293
     46 C          64.1605   83.5463   15.0873 C.ar    1  UNL1        0.1401
     47 F          64.5233   82.2110   14.5080 F       1  UNL1       -0.2042
     48 C          65.0605   84.7268   14.8719 C.ar    1  UNL1        0.0293
     49 C          64.6978   86.0620   15.4512 C.ar    1  UNL1       -0.0011
@<TRIPOS>BOND
     1     8     9    1
     2     9     7    1
     3     7    10    1
     4    10    11    1
     5     7     6    1
     6     6     5    1
     7     5     4    1
     8     4     1    1
     9     1    12    1
    10    12    13    1
    11    13    14   ar
    12    14    15   ar
    13    15    16   ar
    14    16    19    1
    15    19    20   ar
    16    20    21   ar
    17    21    22   ar
    18    22    23    1
    19    22    24   ar
    20    24    25   ar
    21    16    17   ar
    22    17    18   ar
    23     1     2   am
    24     2     3    2
    25     2    26    1
    26    26    27    1
    27    27    28   ar
    28    28    29   ar
    29    29    34    1
    30    34    35    1
    31    35    36   ar
    32    36    37   ar
    33    37    38   ar
    34    38    39    1
    35    38    40   ar
    36    29    30   ar
    37    30    31    2
    38    30    32   ar
    39    32    33   ar
    40    33    41    1
    41    41    42    1
    42    42    43    1
    43    43    44   ar
    44    44    45   ar
    45    45    46   ar
    46    46    47    1
    47    46    48   ar
    48    48    49   ar
    49    18    13   ar
    50    33    27   ar
    51    49    43   ar
    52    25    19   ar
    53    40    35   ar
@<TRIPOS>MOLECULE
*****
 49 53 0 0 0
SMALL
GASTEIGER

@<TRIPOS>ATOM
      1 N          63.6626   88.5439   15.6780 N.am    1  UNL1       -0.2738
      2 C          63.6950   88.6392   14.1814 C.2     1  UNL1        0.2490
      3 O          63.9425   87.4109   13.3568 O.2     1  UNL1       -0.2727
      4 C          63.4151   89.7723   16.5025 C.3     1  UNL1        0.0952
      5 C          63.8404   91.1169   15.9915 C.3     1  UNL1        0.0388
      6 C          64.9114   91.8864   16.7060 C.3     1  UNL1        0.0739
      7 N          66.0462   92.4883   15.9314 N.3     1  UNL1       -0.2726
      8 C          66.5882   93.9969   13.8869 C.3     1  UNL1        0.0188
      9 C          65.8700   92.8209   14.4794 C.3     1  UNL1        0.0721
     10 C          67.3572   92.7575   16.6087 C.3     1  UNL1        0.0721
     11 C          68.6357   92.2836   15.9836 C.3     1  UNL1        0.0188
     12 C          63.8777   87.2203   16.3500 C.3     1  UNL1        0.1202
     13 C          63.6930   85.9480   15.5773 C.ar    1  UNL1       -0.0023
     14 C          64.8340   85.3771   14.7886 C.ar    1  UNL1       -0.0026
     15 C          64.6493   84.1048   14.0159 C.ar    1  UNL1       -0.0003
     16 C          63.3234   83.4034   14.0319 C.ar    1  UNL1       -0.0000
     17 C          62.1824   83.9743   14.8206 C.ar    1  UNL1       -0.0003
     18 C          62.3672   85.2466   15.5933 C.ar    1  UNL1       -0.0026
     19 C          63.1387   82.1310   13.2591 C.ar    1  UNL1        0.0001
     20 C          63.4193   82.1008   11.7860 C.ar    1  UNL1        0.0009
     21 C          63.2345   80.8285   11.0132 C.ar    1  UNL1        0.0114
     22 C          62.7692   79.5864   11.7137 C.ar    1  UNL1        0.0577
     23 CL         62.5845   78.3141   10.9410 Cl      1  UNL1       -0.0822
     24 C          62.4886   79.6167   13.1870 C.ar    1  UNL1        0.0114
     25 C          62.6733   80.8890   13.9597 C.ar    1  UNL1        0.0009
     26 C          63.4799   89.9629   13.5093 C.3     1  UNL1        0.1934
     27 N          62.7674   90.0277   12.1909 N.ar    1  UNL1       -0.2979
     28 C          61.7184   89.0096   11.8544 C.ar    1  UNL1        0.0786
     29 C          61.0060   89.0743   10.5360 C.ar    1  UNL1        0.0574
     30 C          61.3426   90.1571    9.5540 C.ar    1  UNL1        0.2786
     31 O          60.6302   90.2219    8.2356 O.2     1  UNL1       -0.2654
     32 N          62.3916   91.1752    9.8905 N.ar    1  UNL1       -0.1847
     33 C          63.1040   91.1104   11.2089 C.ar    1  UNL1        0.1750
     34 C          59.9570   88.0563   10.1996 C.3     1  UNL1        0.0622
     35 C          60.1663   87.1155    9.0501 C.ar    1  UNL1        0.0220
     36 C          59.1412   86.7373    8.0224 C.ar    1  UNL1        0.1177
     37 N          59.7787   85.7758    7.0637 N.ar    1  UNL1       -0.1679
     38 N          61.1979   85.5597    7.4989 N.ar    1  UNL1       -0.2477
     39 C          62.2013   84.6717    6.8248 C.3     1  UNL1        0.1537
     40 C          61.4374   86.3877    8.7265 C.ar    1  UNL1        0.0927
     41 S          64.1529   92.1285   11.5453 S.3     1  UNL1       -0.0724
     42 C          65.5208   92.0247   10.9384 C.3     1  UNL1        0.0913
     43 C          66.1600   93.2321   10.3191 C.ar    1  UNL1       -0.0108
     44 C          67.4136   93.0846    9.5088 C.ar    1  UNL1       -0.0011
     45 C          68.0529   94.2920    8.8895 C.ar    1  UNL1        0.0293
     46 C          67.4385   95.6470    9.0806 C.ar    1  UNL1        0.1401
     47 F          68.0777   96.8544    8.4613 F       1  UNL1       -0.2042
     48 C          66.1848   95.7946    9.8909 C.ar    1  UNL1        0.0293
     49 C          65.5456   94.5872   10.5102 C.ar    1  UNL1       -0.0011
@<TRIPOS>BOND
     1     8     9    1
     2     9     7    1
     3     7    10    1
     4    10    11    1
     5     7     6    1
     6     6     5    1
     7     5     4    1
     8     4     1    1
     9     1    12    1
    10    12    13    1
    11    13    14   ar
    12    14    15   ar
    13    15    16   ar
    14    16    19    1
    15    19    20   ar
    16    20    21   ar
    17    21    22   ar
    18    22    23    1
    19    22    24   ar
    20    24    25   ar
    21    16    17   ar
    22    17    18   ar
    23     1     2   am
    24     2     3    2
    25     2    26    1
    26    26    27    1
    27    27    28   ar
    28    28    29   ar
    29    29    34    1
    30    34    35    1
    31    35    36   ar
    32    36    37   ar
    33    37    38   ar
    34    38    39    1
    35    38    40   ar
    36    29    30   ar
    37    30    31    2
    38    30    32   ar
    39    32    33   ar
    40    33    41    1
    41    41    42    1
    42    42    43    1
    43    43    44   ar
    44    44    45   ar
    45    45    46   ar
    46    46    47    1
    47    46    48   ar
    48    48    49   ar
    49    18    13   ar
    50    33    27   ar
    51    49    43   ar
    52    25    19   ar
    53    40    35   ar
@<TRIPOS>MOLECULE
*****
 49 53 0 0 0
SMALL
GASTEIGER

@<TRIPOS>ATOM
      1 N          63.8106   87.6357   15.4454 N.am    1  UNL1       -0.2738
      2 C          63.5224   88.8901   16.2157 C.2     1  UNL1        0.2490
      3 O          63.1057   88.8078   17.6543 O.2     1  UNL1       -0.2727
      4 C          64.2273   87.7181   14.0067 C.3     1  UNL1        0.0952
      5 C          63.7418   86.6928   13.0254 C.3     1  UNL1        0.0388
      6 C          62.8440   87.1021   11.8956 C.3     1  UNL1        0.0739
      7 N          62.7110   86.2233   10.6872 N.3     1  UNL1       -0.2726
      8 C          63.7524   83.8931   10.2024 C.3     1  UNL1        0.0188
      9 C          62.6868   84.7317   10.8436 C.3     1  UNL1        0.0721
     10 C          62.6020   86.8363    9.3225 C.3     1  UNL1        0.0721
     11 C          62.6709   85.9668    8.1022 C.3     1  UNL1        0.0188
     12 C          63.6821   86.2990   16.1136 C.3     1  UNL1        0.1202
     13 C          63.5167   85.0593   15.2855 C.ar    1  UNL1       -0.0023
     14 C          64.7055   84.4475   14.6054 C.ar    1  UNL1       -0.0026
     15 C          64.5401   83.2079   13.7773 C.ar    1  UNL1       -0.0003
     16 C          63.1859   82.5799   13.6293 C.ar    1  UNL1       -0.0000
     17 C          61.9971   83.1917   14.3093 C.ar    1  UNL1       -0.0003
     18 C          62.1625   84.4313   15.1374 C.ar    1  UNL1       -0.0026
     19 C          63.0205   81.3402   12.8011 C.ar    1  UNL1        0.0001
     20 C          63.2364   81.3948   11.3178 C.ar    1  UNL1        0.0009
     21 C          63.0710   80.1551   10.4896 C.ar    1  UNL1        0.0114
     22 C          62.6898   78.8607   11.1449 C.ar    1  UNL1        0.0577
     23 CL         62.5244   77.6210   10.3168 Cl      1  UNL1       -0.0822
     24 C          62.4739   78.8062   12.6283 C.ar    1  UNL1        0.0114
     25 C          62.6393   80.0459   13.4564 C.ar    1  UNL1        0.0009
     26 C          63.6509   90.2269   15.5474 C.3     1  UNL1        0.1934
     27 N          63.2759   90.3826   14.1034 N.ar    1  UNL1       -0.2979
     28 C          61.9009   90.0018   13.6403 C.ar    1  UNL1        0.0786
     29 C          61.5259   90.1575   12.1963 C.ar    1  UNL1        0.0574
     30 C          62.5259   90.6940   11.2153 C.ar    1  UNL1        0.2786
     31 O          62.1509   90.8497    9.7713 O.2     1  UNL1       -0.2654
     32 N          63.9009   91.0748   11.6784 N.ar    1  UNL1       -0.1847
     33 C          64.2758   90.9191   13.1224 C.ar    1  UNL1        0.1750
     34 C          60.1510   89.7767   11.7332 C.3     1  UNL1        0.0622
     35 C          59.9516   89.2175   10.3556 C.ar    1  UNL1        0.0220
     36 C          60.0230   89.9897    9.0717 C.ar    1  UNL1        0.1177
     37 N          59.7613   89.0373    7.9428 N.ar    1  UNL1       -0.1679
     38 N          59.5282   87.6764    8.5290 N.ar    1  UNL1       -0.2477
     39 C          59.2299   86.4241    7.7591 C.3     1  UNL1        0.1537
     40 C          59.6458   87.7878   10.0202 C.ar    1  UNL1        0.0927
     41 S          65.6508   91.2999   13.5855 S.3     1  UNL1       -0.0724
     42 C          66.1379   92.7079   13.4109 C.3     1  UNL1        0.0913
     43 C          66.5331   93.2014   12.0506 C.ar    1  UNL1       -0.0108
     44 C          67.2924   92.3042   11.1187 C.ar    1  UNL1       -0.0011
     45 C          67.6876   92.7978    9.7584 C.ar    1  UNL1        0.0293
     46 C          67.3236   94.1885    9.3302 C.ar    1  UNL1        0.1401
     47 F          67.7188   94.6820    7.9700 F       1  UNL1       -0.2042
     48 C          66.5643   95.0857   10.2622 C.ar    1  UNL1        0.0293
     49 C          66.1691   94.5922   11.6224 C.ar    1  UNL1       -0.0011
@<TRIPOS>BOND
     1     8     9    1
     2     9     7    1
     3     7    10    1
     4    10    11    1
     5     7     6    1
     6     6     5    1
     7     5     4    1
     8     4     1    1
     9     1    12    1
    10    12    13    1
    11    13    14   ar
    12    14    15   ar
    13    15    16   ar
    14    16    19    1
    15    19    20   ar
    16    20    21   ar
    17    21    22   ar
    18    22    23    1
    19    22    24   ar
    20    24    25   ar
    21    16    17   ar
    22    17    18   ar
    23     1     2   am
    24     2     3    2
    25     2    26    1
    26    26    27    1
    27    27    28   ar
    28    28    29   ar
    29    29    34    1
    30    34    35    1
    31    35    36   ar
    32    36    37   ar
    33    37    38   ar
    34    38    39    1
    35    38    40   ar
    36    29    30   ar
    37    30    31    2
    38    30    32   ar
    39    32    33   ar
    40    33    41    1
    41    41    42    1
    42    42    43    1
    43    43    44   ar
    44    44    45   ar
    45    45    46   ar
    46    46    47    1
    47    46    48   ar
    48    48    49   ar
    49    18    13   ar
    50    33    27   ar
    51    49    43   ar
    52    25    19   ar
    53    40    35   ar
