@<TRIPOS>MOLECULE
*****
 34 37 0 0 0
SMALL
GASTEIGER

@<TRIPOS>ATOM
      1 C          62.3439   86.9009   11.7968 C.ar    1  UNL1        0.2490
      2 N          61.4237   86.2625   10.7989 N.ar    1  UNL1       -0.1863
      3 C          60.7617   87.1007    9.7458 C.ar    1  UNL1        0.2225
      4 N          61.0197   88.5773    9.6905 N.ar    1  UNL1       -0.1420
      5 N          61.9399   89.2157   10.6884 N.ar    1  UNL1       -0.2193
      6 C          62.3823   90.6360   10.8805 C.ar    1  UNL1        0.1371
      7 C          63.3177   90.6757   12.0524 C.ar    1  UNL1        0.1554
      8 C          63.4535   89.2798   12.5845 C.ar    1  UNL1        0.0359
      9 C          64.2934   88.8600   13.7543 C.3     1  UNL1        0.0360
     10 C          62.6019   88.3775   11.7415 C.ar    1  UNL1        0.1353
     11 O          63.0059   86.0627   12.8499 O.3     1  UNL1       -0.4328
     12 C          62.9130   78.6221   10.3494 C.3     1  UNL1        0.0521
     13 C          62.8411   79.9320   11.0769 C.2     1  UNL1        0.0591
     14 C          63.1730   81.2780   10.5042 C.2     1  UNL1        0.0182
     15 C          62.9616   82.3037   11.5781 C.2     1  UNL1        0.0455
     16 C          63.1306   83.7940   11.5899 C.2     1  UNL1        0.1752
     17 F          63.5930   84.5062   10.3534 F       1  UNL1       -0.2009
     18 C          62.8370   84.5723   12.8382 C.2     1  UNL1        0.1706
     19 C          62.3745   83.8602   14.0747 C.2     1  UNL1        0.0201
     20 C          62.2056   82.3697   14.0629 C.3     1  UNL1        0.0751
     21 C          62.4991   81.5915   12.8146 C.2     1  UNL1        0.0653
     22 N          62.4247   80.1257   12.5048 N.2     1  UNL1       -0.2536
     23 O          63.9980   91.8968   12.5966 O.3     1  UNL1       -0.4703
     24 C          65.3306   92.3183   12.0523 C.3     1  UNL1        0.2486
     25 C          65.8529   93.6964   12.3314 C.3     1  UNL1        0.2123
     26 C          66.0089   94.6807   11.2102 C.3     1  UNL1        0.0514
     27 O          66.2192   94.0904   13.7315 O.3     1  UNL1       -0.4475
     28 C          66.4841   93.0339   14.7629 C.2     1  UNL1        0.3311
     29 O          65.3716   92.5525   15.6463 O.2     1  UNL1       -0.2486
     30 C          67.8616   92.4589   14.9109 C.3     1  UNL1        0.1512
     31 C          68.4970   92.3737   16.2670 C.3     1  UNL1        0.0289
     32 N          68.6036   91.9690   13.7028 N.3     1  UNL1       -0.3134
     33 H          69.5169   91.6136   13.9857 H       1  UNL1        0.1193
     34 H          68.7272   92.7383   13.0446 H       1  UNL1        0.1193
@<TRIPOS>BOND
     1    12    13    1
     2    13    14    2
     3    14    15    1
     4    15    16    2
     5    16    17    1
     6    16    18    1
     7    18    11    1
     8    11     1    1
     9     1     2   ar
    10     2     3   ar
    11     3     4   ar
    12     4     5   ar
    13     5     6   ar
    14     6     7   ar
    15     7    23    1
    16    23    24    1
    17    24    25    1
    18    25    26    1
    19    25    27    1
    20    27    28    1
    21    28    29    2
    22    28    30    1
    23    30    31    1
    24    30    32    1
    25     7     8   ar
    26     8     9    1
    27     8    10   ar
    28    18    19    2
    29    19    20    1
    30    20    21    1
    31    21    22    2
    32    22    13    1
    33    21    15    1
    34    10     1   ar
    35    10     5   ar
    36    32    33    1
    37    32    34    1
@<TRIPOS>MOLECULE
*****
 34 37 0 0 0
SMALL
GASTEIGER

@<TRIPOS>ATOM
      1 C          61.2887   89.2597   11.1302 C.ar    1  UNL1        0.2490
      2 N          60.4427   90.1564   10.2758 N.ar    1  UNL1       -0.1863
      3 C          59.9193   89.6630    8.9595 C.ar    1  UNL1        0.2225
      4 N          60.2420   88.2729    8.4976 N.ar    1  UNL1       -0.1420
      5 N          61.0880   87.3762    9.3520 N.ar    1  UNL1       -0.2193
      6 C          61.5681   85.9680    9.1608 C.ar    1  UNL1        0.1371
      7 C          62.3881   85.5911   10.3589 C.ar    1  UNL1        0.1554
      8 C          62.4149   86.7663   11.2906 C.ar    1  UNL1        0.0359
      9 C          63.1212   86.8276   12.6125 C.3     1  UNL1        0.0360
     10 C          61.6114   87.8696   10.6683 C.ar    1  UNL1        0.1353
     11 O          61.8121   89.7531   12.4465 O.3     1  UNL1       -0.4328
     12 C          68.5093   92.8428   15.1342 C.3     1  UNL1        0.0521
     13 C          67.2965   92.3900   14.3767 C.2     1  UNL1        0.0591
     14 C          66.2059   91.5061   14.9052 C.2     1  UNL1        0.0182
     15 C          65.1966   91.3114   13.8128 C.2     1  UNL1        0.0455
     16 C          63.9129   90.5374   13.7587 C.2     1  UNL1        0.1752
     17 F          63.4461   89.7739   14.9624 F       1  UNL1       -0.2009
     18 C          63.0958   90.5270   12.5007 C.2     1  UNL1        0.1706
     19 C          63.5626   91.2906   11.2969 C.2     1  UNL1        0.0201
     20 C          64.8465   92.0645   11.3511 C.3     1  UNL1        0.0751
     21 C          65.6634   92.0749   12.6090 C.2     1  UNL1        0.0653
     22 N          66.9612   92.7415   12.9575 N.2     1  UNL1       -0.2536
     23 O          63.0629   84.2707   10.5855 O.3     1  UNL1       -0.4703
     24 C          62.4445   83.2606   11.5059 C.3     1  UNL1        0.2486
     25 C          63.3187   82.3698   12.3379 C.3     1  UNL1        0.2123
     26 C          63.0291   80.9003   12.4211 C.3     1  UNL1        0.0514
     27 O          64.4825   82.9485   13.0868 O.3     1  UNL1       -0.4475
     28 C          64.2775   83.5419   14.4490 C.2     1  UNL1        0.3311
     29 O          63.3030   82.9148   15.4014 O.2     1  UNL1       -0.2486
     30 C          65.0470   84.7625   14.8589 C.3     1  UNL1        0.1512
     31 C          64.3562   85.8731   15.5933 C.3     1  UNL1        0.0289
     32 N          66.5074   84.8725   14.5344 N.3     1  UNL1       -0.3134
     33 H          66.8675   85.7603   14.8844 H       1  UNL1        0.1193
     34 H          66.6353   84.8285   13.5234 H       1  UNL1        0.1193
@<TRIPOS>BOND
     1    12    13    1
     2    13    14    2
     3    14    15    1
     4    15    16    2
     5    16    17    1
     6    16    18    1
     7    18    11    1
     8    11     1    1
     9     1     2   ar
    10     2     3   ar
    11     3     4   ar
    12     4     5   ar
    13     5     6   ar
    14     6     7   ar
    15     7    23    1
    16    23    24    1
    17    24    25    1
    18    25    26    1
    19    25    27    1
    20    27    28    1
    21    28    29    2
    22    28    30    1
    23    30    31    1
    24    30    32    1
    25     7     8   ar
    26     8     9    1
    27     8    10   ar
    28    18    19    2
    29    19    20    1
    30    20    21    1
    31    21    22    2
    32    22    13    1
    33    21    15    1
    34    10     1   ar
    35    10     5   ar
    36    32    33    1
    37    32    34    1
@<TRIPOS>MOLECULE
*****
 34 37 0 0 0
SMALL
GASTEIGER

@<TRIPOS>ATOM
      1 C          62.3822   86.7575   11.8702 C.ar    1  UNL1        0.2490
      2 N          61.4464   86.1378   10.8751 N.ar    1  UNL1       -0.1863
      3 C          60.7545   86.9980    9.8596 C.ar    1  UNL1        0.2225
      4 N          60.9985   88.4779    9.8391 N.ar    1  UNL1       -0.1420
      5 N          61.9343   89.0975   10.8342 N.ar    1  UNL1       -0.2193
      6 C          62.3683   90.5162   11.0555 C.ar    1  UNL1        0.1371
      7 C          63.3285   90.5328   12.2079 C.ar    1  UNL1        0.1554
      8 C          63.4878   89.1244   12.6987 C.ar    1  UNL1        0.0359
      9 C          64.3563   88.6808   13.8384 C.3     1  UNL1        0.0360
     10 C          62.6262   88.2373   11.8497 C.ar    1  UNL1        0.1353
     11 O          63.0741   85.8973   12.8857 O.3     1  UNL1       -0.4328
     12 C          62.9119   78.4823   10.3137 C.3     1  UNL1        0.0521
     13 C          62.8508   79.7858   11.0534 C.2     1  UNL1        0.0591
     14 C          63.1999   81.1336   10.4951 C.2     1  UNL1        0.0182
     15 C          62.9948   82.1512   11.5778 C.2     1  UNL1        0.0455
     16 C          63.1799   83.6395   11.6046 C.2     1  UNL1        0.1752
     17 F          63.6557   84.3583   10.3771 F       1  UNL1       -0.2009
     18 C          62.8891   84.4090   12.8590 C.2     1  UNL1        0.1706
     19 C          62.4132   83.6902   14.0865 C.2     1  UNL1        0.0201
     20 C          62.2282   82.2018   14.0597 C.3     1  UNL1        0.0751
     21 C          62.5190   81.4324   12.8054 C.2     1  UNL1        0.0653
     22 N          62.4300   79.9705   12.4812 N.2     1  UNL1       -0.2536
     23 O          64.0096   91.7450   12.7706 O.3     1  UNL1       -0.4703
     24 C          64.9525   92.5397   11.9165 C.3     1  UNL1        0.2486
     25 C          66.2801   92.9705   12.4659 C.3     1  UNL1        0.2123
     26 C          66.9892   92.1134   13.4722 C.3     1  UNL1        0.0514
     27 O          66.8987   94.2583   12.0088 O.3     1  UNL1       -0.4475
     28 C          66.5760   94.8046   10.6497 C.2     1  UNL1        0.3311
     29 O          65.3269   95.6087   10.4418 O.2     1  UNL1       -0.2486
     30 C          67.5022   94.5467    9.4984 C.3     1  UNL1        0.1512
     31 C          68.0474   93.1683    9.2685 C.3     1  UNL1        0.0289
     32 N          67.8834   95.6673    8.5769 N.3     1  UNL1       -0.3134
     33 H          68.5144   95.3156    7.8568 H       1  UNL1        0.1193
     34 H          68.3504   96.4014    9.1092 H       1  UNL1        0.1193
@<TRIPOS>BOND
     1    12    13    1
     2    13    14    2
     3    14    15    1
     4    15    16    2
     5    16    17    1
     6    16    18    1
     7    18    11    1
     8    11     1    1
     9     1     2   ar
    10     2     3   ar
    11     3     4   ar
    12     4     5   ar
    13     5     6   ar
    14     6     7   ar
    15     7    23    1
    16    23    24    1
    17    24    25    1
    18    25    26    1
    19    25    27    1
    20    27    28    1
    21    28    29    2
    22    28    30    1
    23    30    31    1
    24    30    32    1
    25     7     8   ar
    26     8     9    1
    27     8    10   ar
    28    18    19    2
    29    19    20    1
    30    20    21    1
    31    21    22    2
    32    22    13    1
    33    21    15    1
    34    10     1   ar
    35    10     5   ar
    36    32    33    1
    37    32    34    1
@<TRIPOS>MOLECULE
*****
 34 37 0 0 0
SMALL
GASTEIGER

@<TRIPOS>ATOM
      1 C          62.1237   87.2336   11.4606 C.ar    1  UNL1        0.2490
      2 N          61.1708   86.6510   10.4594 N.ar    1  UNL1       -0.1863
      3 C          60.5816   87.5219    9.3897 C.ar    1  UNL1        0.2225
      4 N          60.9454   88.9755    9.3211 N.ar    1  UNL1       -0.1420
      5 N          61.8984   89.5581   10.3223 N.ar    1  UNL1       -0.2193
      6 C          62.4394   90.9453   10.5038 C.ar    1  UNL1        0.1371
      7 C          63.3628   90.9318   11.6857 C.ar    1  UNL1        0.1554
      8 C          63.3926   89.5362   12.2347 C.ar    1  UNL1        0.0359
      9 C          64.1878   89.0711   13.4185 C.3     1  UNL1        0.0360
     10 C          62.4875   88.6872   11.3920 C.ar    1  UNL1        0.1353
     11 O          62.7129   86.3627   12.5304 O.3     1  UNL1       -0.4328
     12 C          62.1311   78.6452   13.8437 C.3     1  UNL1        0.0521
     13 C          62.3519   80.0402   13.3387 C.2     1  UNL1        0.0591
     14 C          62.0347   81.3062   14.0781 C.2     1  UNL1        0.0182
     15 C          62.4155   82.4626   13.2020 C.2     1  UNL1        0.0455
     16 C          62.3304   83.9464   13.4051 C.2     1  UNL1        0.1752
     17 F          61.7779   84.4975   14.6861 F       1  UNL1       -0.2009
     18 C          62.7979   84.8790   12.3272 C.2     1  UNL1        0.1706
     19 C          63.3504   84.3278   11.0463 C.2     1  UNL1        0.0201
     20 C          63.4355   82.8440   10.8432 C.3     1  UNL1        0.0751
     21 C          62.9680   81.9115   11.9210 C.2     1  UNL1        0.0653
     22 N          62.9287   80.4143   12.0055 N.2     1  UNL1       -0.2536
     23 O          64.1231   92.1074   12.2242 O.3     1  UNL1       -0.4703
     24 C          65.0237   92.8960   11.3203 C.3     1  UNL1        0.2486
     25 C          66.4917   92.9843   11.6154 C.3     1  UNL1        0.2123
     26 C          67.4820   92.3328   10.6962 C.3     1  UNL1        0.0514
     27 O          66.9694   93.7240   12.8297 O.3     1  UNL1       -0.4475
     28 C          66.9793   93.0439   14.1666 C.2     1  UNL1        0.3311
     29 O          65.7128   92.9373   14.9631 O.2     1  UNL1       -0.2486
     30 C          68.2556   92.4705   14.7070 C.3     1  UNL1        0.1512
     31 C          68.4317   92.2944   16.1862 C.3     1  UNL1        0.0289
     32 N          69.3560   92.0730   13.7681 N.3     1  UNL1       -0.3134
     33 H          70.1430   91.7055   14.3029 H       1  UNL1        0.1193
     34 H          69.6585   92.8879   13.2344 H       1  UNL1        0.1193
@<TRIPOS>BOND
     1    12    13    1
     2    13    14    2
     3    14    15    1
     4    15    16    2
     5    16    17    1
     6    16    18    1
     7    18    11    1
     8    11     1    1
     9     1     2   ar
    10     2     3   ar
    11     3     4   ar
    12     4     5   ar
    13     5     6   ar
    14     6     7   ar
    15     7    23    1
    16    23    24    1
    17    24    25    1
    18    25    26    1
    19    25    27    1
    20    27    28    1
    21    28    29    2
    22    28    30    1
    23    30    31    1
    24    30    32    1
    25     7     8   ar
    26     8     9    1
    27     8    10   ar
    28    18    19    2
    29    19    20    1
    30    20    21    1
    31    21    22    2
    32    22    13    1
    33    21    15    1
    34    10     1   ar
    35    10     5   ar
    36    32    33    1
    37    32    34    1
@<TRIPOS>MOLECULE
*****
 34 37 0 0 0
SMALL
GASTEIGER

@<TRIPOS>ATOM
      1 C          62.3067   87.2700   11.5612 C.ar    1  UNL1        0.2490
      2 N          61.4402   86.7308   10.4620 N.ar    1  UNL1       -0.1863
      3 C          60.9310   87.6480    9.3899 C.ar    1  UNL1        0.2225
      4 N          61.2884   89.1046    9.4171 N.ar    1  UNL1       -0.1420
      5 N          62.1549   89.6438   10.5163 N.ar    1  UNL1       -0.2193
      6 C          62.6695   91.0232   10.8035 C.ar    1  UNL1        0.1371
      7 C          63.4968   90.9584   12.0531 C.ar    1  UNL1        0.1554
      8 C          63.4934   89.5390   12.5381 C.ar    1  UNL1        0.0359
      9 C          64.1960   89.0227   13.7587 C.3     1  UNL1        0.0360
     10 C          62.6640   88.7266   11.5884 C.ar    1  UNL1        0.1353
     11 O          62.8159   86.3528   12.6333 O.3     1  UNL1       -0.4328
     12 C          62.0975   78.6158   13.7495 C.3     1  UNL1        0.0521
     13 C          62.3409   80.0192   13.2793 C.2     1  UNL1        0.0591
     14 C          62.0536   81.2710   14.0541 C.2     1  UNL1        0.0182
     15 C          62.4495   82.4427   13.2053 C.2     1  UNL1        0.0455
     16 C          62.3943   83.9219   13.4478 C.2     1  UNL1        0.1752
     17 F          61.8622   84.4496   14.7472 F       1  UNL1       -0.2009
     18 C          62.8711   84.8735   12.3908 C.2     1  UNL1        0.1706
     19 C          63.4032   84.3459   11.0914 C.2     1  UNL1        0.0201
     20 C          63.4584   82.8666   10.8490 C.3     1  UNL1        0.0751
     21 C          62.9816   81.9150   11.9059 C.2     1  UNL1        0.0653
     22 N          62.9144   80.4172   11.9516 N.2     1  UNL1       -0.2536
     23 O          64.2034   92.1107   12.7034 O.3     1  UNL1       -0.4703
     24 C          65.6131   92.4429   12.3131 C.3     1  UNL1        0.2486
     25 C          66.3014   93.6270   12.9247 C.3     1  UNL1        0.2123
     26 C          66.8288   93.5465   14.3266 C.3     1  UNL1        0.0514
     27 O          66.4625   94.8917   12.1343 O.3     1  UNL1       -0.4475
     28 C          66.8464   94.8271   10.6857 C.2     1  UNL1        0.3311
     29 O          67.9084   93.8693   10.2333 O.2     1  UNL1       -0.2486
     30 C          66.1684   95.7203    9.6896 C.3     1  UNL1        0.1512
     31 C          66.8817   96.1182    8.4315 C.3     1  UNL1        0.0289
     32 N          64.7769   96.2157    9.9515 N.3     1  UNL1       -0.3134
     33 H          64.4746   96.8058    9.1764 H       1  UNL1        0.1193
     34 H          64.7658   96.7573   10.8157 H       1  UNL1        0.1193
@<TRIPOS>BOND
     1    12    13    1
     2    13    14    2
     3    14    15    1
     4    15    16    2
     5    16    17    1
     6    16    18    1
     7    18    11    1
     8    11     1    1
     9     1     2   ar
    10     2     3   ar
    11     3     4   ar
    12     4     5   ar
    13     5     6   ar
    14     6     7   ar
    15     7    23    1
    16    23    24    1
    17    24    25    1
    18    25    26    1
    19    25    27    1
    20    27    28    1
    21    28    29    2
    22    28    30    1
    23    30    31    1
    24    30    32    1
    25     7     8   ar
    26     8     9    1
    27     8    10   ar
    28    18    19    2
    29    19    20    1
    30    20    21    1
    31    21    22    2
    32    22    13    1
    33    21    15    1
    34    10     1   ar
    35    10     5   ar
    36    32    33    1
    37    32    34    1
@<TRIPOS>MOLECULE
*****
 34 37 0 0 0
SMALL
GASTEIGER

@<TRIPOS>ATOM
      1 C          63.2390   90.1681   13.5881 C.ar    1  UNL1        0.2490
      2 N          62.7238   89.5805   14.8684 N.ar    1  UNL1       -0.1863
      3 C          63.2493   90.0725   16.1843 C.ar    1  UNL1        0.2225
      4 N          64.2899   91.1521   16.2200 N.ar    1  UNL1       -0.1420
      5 N          64.8051   91.7398   14.9397 N.ar    1  UNL1       -0.2193
      6 C          65.8218   92.8073   14.6629 C.ar    1  UNL1        0.1371
      7 C          65.9247   92.9751   13.1759 C.ar    1  UNL1        0.1554
      8 C          64.9716   92.0112   12.5336 C.ar    1  UNL1        0.0359
      9 C          64.7494   91.8408   11.0600 C.3     1  UNL1        0.0360
     10 C          64.2796   91.2478   13.6237 C.ar    1  UNL1        0.1353
     11 O          62.7135   89.6761   12.2721 O.3     1  UNL1       -0.4328
     12 C          63.8048   81.9228   12.8362 C.3     1  UNL1        0.0521
     13 C          63.4072   83.3347   12.5226 C.2     1  UNL1        0.0591
     14 C          63.9427   84.5693   13.1852 C.2     1  UNL1        0.0182
     15 C          63.2709   85.7576   12.5634 C.2     1  UNL1        0.0455
     16 C          63.4020   87.2305   12.8153 C.2     1  UNL1        0.1752
     17 F          64.3527   87.7307   13.8622 F       1  UNL1       -0.2009
     18 C          62.5824   88.2032   12.0202 C.2     1  UNL1        0.1706
     19 C          61.6316   87.7031   10.9733 C.2     1  UNL1        0.0201
     20 C          61.5006   86.2301   10.7215 C.3     1  UNL1        0.0751
     21 C          62.3202   85.2575   11.5165 C.2     1  UNL1        0.0653
     22 N          62.4045   83.7600   11.4913 N.2     1  UNL1       -0.2536
     23 O          66.8230   93.9378   12.4572 O.3     1  UNL1       -0.4703
     24 C          66.2806   95.2484   11.9694 C.3     1  UNL1        0.2486
     25 C          66.7216   95.7960   10.6444 C.3     1  UNL1        0.2123
     26 C          65.9072   96.8550    9.9621 C.3     1  UNL1        0.0514
     27 O          67.9767   95.2848   10.0017 O.3     1  UNL1       -0.4475
     28 C          67.9057   94.1742    8.9960 C.2     1  UNL1        0.3311
     29 O          67.3077   94.4244    7.6433 O.2     1  UNL1       -0.2486
     30 C          68.4326   92.8133    9.3429 C.3     1  UNL1        0.1512
     31 C          69.0061   91.9353    8.2704 C.3     1  UNL1        0.0289
     32 N          68.3862   92.3305   10.7623 N.3     1  UNL1       -0.3134
     33 H          68.7830   91.3923   10.8155 H       1  UNL1        0.1193
     34 H          67.4180   92.3088   11.0826 H       1  UNL1        0.1193
@<TRIPOS>BOND
     1    12    13    1
     2    13    14    2
     3    14    15    1
     4    15    16    2
     5    16    17    1
     6    16    18    1
     7    18    11    1
     8    11     1    1
     9     1     2   ar
    10     2     3   ar
    11     3     4   ar
    12     4     5   ar
    13     5     6   ar
    14     6     7   ar
    15     7    23    1
    16    23    24    1
    17    24    25    1
    18    25    26    1
    19    25    27    1
    20    27    28    1
    21    28    29    2
    22    28    30    1
    23    30    31    1
    24    30    32    1
    25     7     8   ar
    26     8     9    1
    27     8    10   ar
    28    18    19    2
    29    19    20    1
    30    20    21    1
    31    21    22    2
    32    22    13    1
    33    21    15    1
    34    10     1   ar
    35    10     5   ar
    36    32    33    1
    37    32    34    1
@<TRIPOS>MOLECULE
*****
 34 37 0 0 0
SMALL
GASTEIGER

@<TRIPOS>ATOM
      1 C          63.5707   86.8891   14.6908 C.ar    1  UNL1        0.2490
      2 N          63.0464   85.6780   15.4037 N.ar    1  UNL1       -0.1863
      3 C          62.5469   85.7951   16.8133 C.ar    1  UNL1        0.2225
      4 N          62.5718   87.1233   17.5099 N.ar    1  UNL1       -0.1420
      5 N          63.0961   88.3344   16.7970 N.ar    1  UNL1       -0.2193
      6 C          63.2433   89.7649   17.2236 C.ar    1  UNL1        0.1371
      7 C          63.8338   90.5319   16.0777 C.ar    1  UNL1        0.1554
      8 C          64.0515   89.5754   14.9429 C.ar    1  UNL1        0.0359
      9 C          64.6245   89.9171   13.5995 C.3     1  UNL1        0.0360
     10 C          63.5956   88.2173   15.3874 C.ar    1  UNL1        0.1353
     11 O          64.0702   86.7721   13.2813 O.3     1  UNL1       -0.4328
     12 C          59.1739   88.4168    7.3699 C.3     1  UNL1        0.0521
     13 C          60.0406   87.8285    8.4435 C.2     1  UNL1        0.0591
     14 C          60.9091   88.5968    9.3952 C.2     1  UNL1        0.0182
     15 C          61.5964   87.6118   10.2938 C.2     1  UNL1        0.0455
     16 C          62.5689   87.7909   11.4217 C.2     1  UNL1        0.1752
     17 F          63.0126   89.1679   11.8179 F       1  UNL1       -0.2009
     18 C          63.0977   86.5930   12.1534 C.2     1  UNL1        0.1706
     19 C          62.6540   85.2160   11.7572 C.2     1  UNL1        0.0201
     20 C          61.6814   85.0369   10.6292 C.3     1  UNL1        0.0751
     21 C          61.1527   86.2348    9.8976 C.2     1  UNL1        0.0653
     22 N          60.1912   86.3688    8.7541 N.2     1  UNL1       -0.2536
     23 O          64.1509   91.9980   16.0683 O.3     1  UNL1       -0.4703
     24 C          65.4875   92.4793   16.5497 C.3     1  UNL1        0.2486
     25 C          66.4975   92.9943   15.5675 C.3     1  UNL1        0.2123
     26 C          67.9629   92.8608   15.8591 C.3     1  UNL1        0.0514
     27 O          66.0422   93.6426   14.2939 O.3     1  UNL1       -0.4475
     28 C          66.4957   93.0986   12.9716 C.2     1  UNL1        0.3311
     29 O          67.6740   92.1728   12.9058 O.2     1  UNL1       -0.2486
     30 C          65.7708   93.4803   11.7151 C.3     1  UNL1        0.1512
     31 C          65.0990   92.4255   10.8868 C.3     1  UNL1        0.0289
     32 N          65.7176   94.9170   11.2869 N.3     1  UNL1       -0.3134
     33 H          65.1886   94.9935   10.4182 H       1  UNL1        0.1193
     34 H          66.6657   95.2631   11.1392 H       1  UNL1        0.1193
@<TRIPOS>BOND
     1    12    13    1
     2    13    14    2
     3    14    15    1
     4    15    16    2
     5    16    17    1
     6    16    18    1
     7    18    11    1
     8    11     1    1
     9     1     2   ar
    10     2     3   ar
    11     3     4   ar
    12     4     5   ar
    13     5     6   ar
    14     6     7   ar
    15     7    23    1
    16    23    24    1
    17    24    25    1
    18    25    26    1
    19    25    27    1
    20    27    28    1
    21    28    29    2
    22    28    30    1
    23    30    31    1
    24    30    32    1
    25     7     8   ar
    26     8     9    1
    27     8    10   ar
    28    18    19    2
    29    19    20    1
    30    20    21    1
    31    21    22    2
    32    22    13    1
    33    21    15    1
    34    10     1   ar
    35    10     5   ar
    36    32    33    1
    37    32    34    1
@<TRIPOS>MOLECULE
*****
 34 37 0 0 0
SMALL
GASTEIGER

@<TRIPOS>ATOM
      1 C          63.2807   86.4510   15.2310 C.ar    1  UNL1        0.2490
      2 N          62.8716   85.4935   16.3106 N.ar    1  UNL1       -0.1863
      3 C          62.6162   85.9953   17.7009 C.ar    1  UNL1        0.2225
      4 N          62.7699   87.4546   18.0116 N.ar    1  UNL1       -0.1420
      5 N          63.1790   88.4122   16.9320 N.ar    1  UNL1       -0.2193
      6 C          63.4092   89.8944   16.9393 C.ar    1  UNL1        0.1371
      7 C          63.8068   90.3087   15.5536 C.ar    1  UNL1        0.1554
      8 C          63.8224   89.0825   14.6898 C.ar    1  UNL1        0.0359
      9 C          64.1657   89.0364   13.2303 C.3     1  UNL1        0.0360
     10 C          63.4344   87.9104   15.5416 C.ar    1  UNL1        0.1353
     11 O          63.5361   85.9492   13.8407 O.3     1  UNL1       -0.4328
     12 C          62.8314   79.2800    9.7605 C.3     1  UNL1        0.0521
     13 C          62.9205   80.3863   10.7695 C.2     1  UNL1        0.0591
     14 C          63.1728   81.8343   10.4703 C.2     1  UNL1        0.0182
     15 C          63.1811   82.5818   11.7707 C.2     1  UNL1        0.0455
     16 C          63.3819   84.0330   12.0930 C.2     1  UNL1        0.1752
     17 F          63.6291   85.0190   10.9900 F       1  UNL1       -0.2009
     18 C          63.3353   84.4981   13.5184 C.2     1  UNL1        0.1706
     19 C          63.0881   83.5121   14.6214 C.2     1  UNL1        0.0201
     20 C          62.8873   82.0609   14.2990 C.3     1  UNL1        0.0751
     21 C          62.9338   81.5958   12.8737 C.2     1  UNL1        0.0653
     22 N          62.7728   80.2389   12.2549 N.2     1  UNL1       -0.2536
     23 O          64.1317   91.7042   15.1096 O.3     1  UNL1       -0.4703
     24 C          65.2843   92.4386   15.7277 C.3     1  UNL1        0.2486
     25 C          66.6906   92.0901   15.3396 C.3     1  UNL1        0.2123
     26 C          67.8379   92.5378   16.1960 C.3     1  UNL1        0.0514
     27 O          66.9498   91.2938   14.0951 O.3     1  UNL1       -0.4475
     28 C          67.3474   91.9909   12.8279 C.2     1  UNL1        0.3311
     29 O          68.7407   91.8386   12.2935 O.2     1  UNL1       -0.2486
     30 C          66.3518   92.8404   12.0950 C.3     1  UNL1        0.1512
     31 C          65.0809   92.2317   11.5809 C.3     1  UNL1        0.0289
     32 N          66.6272   94.2986   11.8760 N.3     1  UNL1       -0.3134
     33 H          65.8506   94.7182   11.3649 H       1  UNL1        0.1193
     34 H          67.4863   94.4052   11.3367 H       1  UNL1        0.1193
@<TRIPOS>BOND
     1    12    13    1
     2    13    14    2
     3    14    15    1
     4    15    16    2
     5    16    17    1
     6    16    18    1
     7    18    11    1
     8    11     1    1
     9     1     2   ar
    10     2     3   ar
    11     3     4   ar
    12     4     5   ar
    13     5     6   ar
    14     6     7   ar
    15     7    23    1
    16    23    24    1
    17    24    25    1
    18    25    26    1
    19    25    27    1
    20    27    28    1
    21    28    29    2
    22    28    30    1
    23    30    31    1
    24    30    32    1
    25     7     8   ar
    26     8     9    1
    27     8    10   ar
    28    18    19    2
    29    19    20    1
    30    20    21    1
    31    21    22    2
    32    22    13    1
    33    21    15    1
    34    10     1   ar
    35    10     5   ar
    36    32    33    1
    37    32    34    1
@<TRIPOS>MOLECULE
*****
 34 37 0 0 0
SMALL
GASTEIGER

@<TRIPOS>ATOM
      1 C          61.1975   89.1617   11.1828 C.ar    1  UNL1        0.2490
      2 N          60.2402   90.0922   10.4990 N.ar    1  UNL1       -0.1863
      3 C          59.6366   89.7108    9.1798 C.ar    1  UNL1        0.2225
      4 N          59.9902   88.3989    8.5445 N.ar    1  UNL1       -0.1420
      5 N          60.9475   87.4683    9.2283 N.ar    1  UNL1       -0.2193
      6 C          61.4809   86.1191    8.8473 C.ar    1  UNL1        0.1371
      7 C          62.4141   85.6666    9.9309 C.ar    1  UNL1        0.1554
      8 C          62.4575   86.7362   10.9817 C.ar    1  UNL1        0.0359
      9 C          63.2655   86.6989   12.2449 C.3     1  UNL1        0.0360
     10 C          61.5511   87.8497   10.5475 C.ar    1  UNL1        0.1353
     11 O          61.8011   89.5431   12.5020 O.3     1  UNL1       -0.4328
     12 C          67.5054   94.4499   10.2643 C.3     1  UNL1        0.0521
     13 C          66.5502   93.5158   10.9463 C.2     1  UNL1        0.0591
     14 C          65.3436   92.8789   10.3232 C.2     1  UNL1        0.0182
     15 C          64.6815   92.0241   11.3629 C.2     1  UNL1        0.0455
     16 C          63.4556   91.1609   11.3207 C.2     1  UNL1        0.1752
     17 F          62.6581   91.0522   10.0549 F       1  UNL1       -0.2009
     18 C          63.0270   90.4063   12.5442 C.2     1  UNL1        0.1706
     19 C          63.8245   90.5150   13.8100 C.2     1  UNL1        0.0201
     20 C          65.0505   91.3783   13.8522 C.3     1  UNL1        0.0751
     21 C          65.4790   92.1328   12.6287 C.2     1  UNL1        0.0653
     22 N          66.6339   93.0548   12.3712 N.2     1  UNL1       -0.2536
     23 O          63.1710   84.3719    9.9589 O.3     1  UNL1       -0.4703
     24 C          63.4166   83.6748   11.2642 C.3     1  UNL1        0.2486
     25 C          62.9630   82.2578   11.4546 C.3     1  UNL1        0.2123
     26 C          63.3066   81.2163   10.4312 C.3     1  UNL1        0.0514
     27 O          62.1657   81.8823   12.6684 O.3     1  UNL1       -0.4475
     28 C          62.8487   81.7212   13.9941 C.2     1  UNL1        0.3311
     29 O          63.2212   80.3535   14.4846 O.2     1  UNL1       -0.2486
     30 C          63.1592   82.9278   14.8293 C.3     1  UNL1        0.1512
     31 C          62.1187   83.9896   15.0292 C.3     1  UNL1        0.0289
     32 N          64.5103   83.0726   15.4648 N.3     1  UNL1       -0.3134
     33 H          64.5463   83.9451   15.9919 H       1  UNL1        0.1193
     34 H          65.2276   83.0836   14.7397 H       1  UNL1        0.1193
@<TRIPOS>BOND
     1    12    13    1
     2    13    14    2
     3    14    15    1
     4    15    16    2
     5    16    17    1
     6    16    18    1
     7    18    11    1
     8    11     1    1
     9     1     2   ar
    10     2     3   ar
    11     3     4   ar
    12     4     5   ar
    13     5     6   ar
    14     6     7   ar
    15     7    23    1
    16    23    24    1
    17    24    25    1
    18    25    26    1
    19    25    27    1
    20    27    28    1
    21    28    29    2
    22    28    30    1
    23    30    31    1
    24    30    32    1
    25     7     8   ar
    26     8     9    1
    27     8    10   ar
    28    18    19    2
    29    19    20    1
    30    20    21    1
    31    21    22    2
    32    22    13    1
    33    21    15    1
    34    10     1   ar
    35    10     5   ar
    36    32    33    1
    37    32    34    1
