@<TRIPOS>MOLECULE
*****
 28 30 0 0 0
SMALL
GASTEIGER

@<TRIPOS>ATOM
      1 C          62.5864   88.7190   11.4636 C.3     1  UNL1        0.0285
      2 C          63.2806   88.3747   12.7480 C.2     1  UNL1       -0.0154
      3 C          63.8294   89.3534   13.7434 C.2     1  UNL1       -0.0046
      4 C          64.4358   88.5747   14.8731 C.2     1  UNL1        0.0895
      5 N          64.2617   87.1148   14.5758 N.2     1  UNL1       -0.2578
      6 C          63.5477   86.9912   13.2624 C.3     1  UNL1        0.1970
      7 C          63.1677   85.7091   12.5827 C.2     1  UNL1        0.2489
      8 O          61.8496   85.5973   11.8755 O.2     1  UNL1       -0.2726
      9 N          64.1057   84.5389   12.6103 N.am    1  UNL1       -0.3006
     10 H          64.9708   84.6124   13.0745 H       1  UNL1        0.1497
     11 C          63.7257   83.2568   11.9307 C.3     1  UNL1        0.0937
     12 C          64.0390   83.0568   10.4776 C.3     1  UNL1        0.0259
     13 C          63.0323   82.1748   12.7044 C.2     1  UNL1        0.0203
     14 C          62.8857   80.7434   12.2806 C.2     1  UNL1        0.1168
     15 N          62.1266   80.0183   13.3521 N.2     1  UNL1       -0.1513
     16 N          61.8042   81.0015   14.4380 N.2     1  UNL1       -0.1698
     17 C          62.3640   82.3343   14.0377 C.3     1  UNL1        0.1745
     18 C          63.7804   90.8482   13.6293 C.3     1  UNL1        0.0552
     19 C          64.7325   91.5623   12.7162 C.ar    1  UNL1        0.0014
     20 C          64.3534   91.8161   11.2873 C.ar    1  UNL1       -0.0009
     21 C          65.3055   92.5301   10.3743 C.ar    1  UNL1        0.0228
     22 C          66.6367   92.9903   10.8902 C.ar    1  UNL1        0.1526
     23 N          67.0158   92.7365   12.3191 N.ar    1  UNL1       -0.2402
     24 C          66.0637   92.0225   13.2321 C.ar    1  UNL1        0.0948
     25 C          67.5888   93.7044    9.9771 C.3     1  UNL1        0.4348
     26 F          68.5408   94.4185    9.0640 F       1  UNL1       -0.1644
     27 F          68.0298   92.3886    9.4078 F       1  UNL1       -0.1644
     28 F          67.1478   95.0202   10.5463 F       1  UNL1       -0.1644
@<TRIPOS>BOND
     1     1     2    1
     2     2     3    2
     3     3    18    1
     4    18    19    1
     5    19    20   ar
     6    20    21   ar
     7    21    22   ar
     8    22    25    1
     9    25    26    1
    10    25    27    1
    11    25    28    1
    12    22    23   ar
    13    23    24   ar
    14     3     4    1
    15     4     5    2
    16     5     6    1
    17     6     7    1
    18     7     8    2
    19     7     9   am
    20     9    11    1
    21    11    12    1
    22    11    13    1
    23    13    14    2
    24    14    15    1
    25    15    16    2
    26    16    17    1
    27     6     2    1
    28    17    13    1
    29    24    19   ar
    30     9    10    1
@<TRIPOS>MOLECULE
*****
 28 30 0 0 0
SMALL
GASTEIGER

@<TRIPOS>ATOM
      1 C          63.2000   91.3082   10.1471 C.3     1  UNL1        0.0285
      2 C          63.4116   90.9707   11.5932 C.2     1  UNL1       -0.0154
      3 C          62.4769   90.1802   12.4600 C.2     1  UNL1       -0.0046
      4 C          63.0827   90.0854   13.8290 C.2     1  UNL1        0.0895
      5 N          64.3919   90.8173   13.8082 N.2     1  UNL1       -0.2578
      6 C          64.5951   91.3645   12.4264 C.3     1  UNL1        0.1970
      7 C          65.7748   92.1649   11.9598 C.2     1  UNL1        0.2489
      8 O          66.6278   92.8937   12.9553 O.2     1  UNL1       -0.2726
      9 N          66.1015   92.2365   10.4975 N.am    1  UNL1       -0.3006
     10 H          65.5416   91.7582    9.8441 H       1  UNL1        0.1497
     11 C          67.2812   93.0369   10.0308 C.3     1  UNL1        0.0937
     12 C          68.5903   92.3561    9.7618 C.3     1  UNL1        0.0259
     13 C          67.1515   94.5182    9.8331 C.2     1  UNL1        0.0203
     14 C          67.6656   95.2995    8.6605 C.2     1  UNL1        0.1168
     15 N          67.3167   96.7424    8.8760 N.2     1  UNL1       -0.1513
     16 N          66.5870   96.8527   10.1818 N.2     1  UNL1       -0.1698
     17 C          66.4848   95.4781   10.7734 C.3     1  UNL1        0.1745
     18 C          61.1665   89.5884   12.0328 C.3     1  UNL1        0.0552
     19 C          61.1226   88.5957   10.9091 C.ar    1  UNL1        0.0014
     20 C          61.9370   87.3385   10.9867 C.ar    1  UNL1       -0.0009
     21 C          61.8931   86.3459    9.8631 C.ar    1  UNL1        0.0228
     22 C          61.0347   86.6104    8.6618 C.ar    1  UNL1        0.1526
     23 N          60.2202   87.8676    8.5842 N.ar    1  UNL1       -0.2402
     24 C          60.2641   88.8602    9.7078 C.ar    1  UNL1        0.0948
     25 C          60.9907   85.6177    7.5381 C.3     1  UNL1        0.4348
     26 F          60.9468   84.6251    6.4144 F       1  UNL1       -0.1644
     27 F          62.4588   85.3609    7.7075 F       1  UNL1       -0.1644
     28 F          59.5227   85.8745    7.3686 F       1  UNL1       -0.1644
@<TRIPOS>BOND
     1     1     2    1
     2     2     3    2
     3     3    18    1
     4    18    19    1
     5    19    20   ar
     6    20    21   ar
     7    21    22   ar
     8    22    25    1
     9    25    26    1
    10    25    27    1
    11    25    28    1
    12    22    23   ar
    13    23    24   ar
    14     3     4    1
    15     4     5    2
    16     5     6    1
    17     6     7    1
    18     7     8    2
    19     7     9   am
    20     9    11    1
    21    11    12    1
    22    11    13    1
    23    13    14    2
    24    14    15    1
    25    15    16    2
    26    16    17    1
    27     6     2    1
    28    17    13    1
    29    24    19   ar
    30     9    10    1
@<TRIPOS>MOLECULE
*****
 28 30 0 0 0
SMALL
GASTEIGER

@<TRIPOS>ATOM
      1 C          63.6143   90.2185   12.7066 C.3     1  UNL1        0.0285
      2 C          64.4644   91.0283   13.6402 C.2     1  UNL1       -0.0154
      3 C          64.4423   90.9576   15.1384 C.2     1  UNL1       -0.0046
      4 C          65.4501   91.9365   15.6636 C.2     1  UNL1        0.0895
      5 N          66.0952   92.6123   14.4900 N.2     1  UNL1       -0.2578
      6 C          65.4860   92.0509   13.2395 C.3     1  UNL1        0.1970
      7 C          65.8368   92.4433   11.8349 C.2     1  UNL1        0.2489
      8 O          64.7725   92.4807   10.7786 O.2     1  UNL1       -0.2726
      9 N          67.2520   92.7984   11.4865 N.am    1  UNL1       -0.3006
     10 H          67.9505   92.7738   12.1798 H       1  UNL1        0.1497
     11 C          67.6028   93.1908   10.0819 C.3     1  UNL1        0.0937
     12 C          68.2897   92.2100    9.1785 C.3     1  UNL1        0.0259
     13 C          67.2668   94.5642    9.5808 C.2     1  UNL1        0.0203
     14 C          66.6101   95.6556   10.3730 C.2     1  UNL1        0.1168
     15 N          66.4660   96.8531    9.4813 N.2     1  UNL1       -0.1513
     16 N          67.0336   96.5018    8.1381 N.2     1  UNL1       -0.1698
     17 C          67.5286   95.0872    8.1996 C.3     1  UNL1        0.1745
     18 C          63.5660   90.0647   15.9660 C.3     1  UNL1        0.0552
     19 C          63.6454   88.5757   15.8029 C.ar    1  UNL1        0.0014
     20 C          64.3221   87.9879   14.6002 C.ar    1  UNL1       -0.0009
     21 C          64.4015   86.4989   14.4372 C.ar    1  UNL1        0.0228
     22 C          63.8041   85.5977   15.4769 C.ar    1  UNL1        0.1526
     23 N          63.1274   86.1855   16.6796 N.ar    1  UNL1       -0.2402
     24 C          63.0480   87.6745   16.8426 C.ar    1  UNL1        0.0948
     25 C          63.8835   84.1087   15.3138 C.3     1  UNL1        0.4348
     26 F          63.9629   82.6197   15.1507 F       1  UNL1       -0.1644
     27 F          62.4119   84.0006   15.5836 F       1  UNL1       -0.1644
     28 F          65.3550   84.2167   15.0440 F       1  UNL1       -0.1644
@<TRIPOS>BOND
     1     1     2    1
     2     2     3    2
     3     3    18    1
     4    18    19    1
     5    19    20   ar
     6    20    21   ar
     7    21    22   ar
     8    22    25    1
     9    25    26    1
    10    25    27    1
    11    25    28    1
    12    22    23   ar
    13    23    24   ar
    14     3     4    1
    15     4     5    2
    16     5     6    1
    17     6     7    1
    18     7     8    2
    19     7     9   am
    20     9    11    1
    21    11    12    1
    22    11    13    1
    23    13    14    2
    24    14    15    1
    25    15    16    2
    26    16    17    1
    27     6     2    1
    28    17    13    1
    29    24    19   ar
    30     9    10    1
@<TRIPOS>MOLECULE
*****
 28 30 0 0 0
SMALL
GASTEIGER

@<TRIPOS>ATOM
      1 C          63.6665   88.4012   13.0667 C.3     1  UNL1        0.0285
      2 C          63.0041   89.1730   11.9642 C.2     1  UNL1       -0.0154
      3 C          62.0274   88.6237   10.9670 C.2     1  UNL1       -0.0046
      4 C          61.6217   89.7408   10.0519 C.2     1  UNL1        0.0895
      5 N          62.3476   90.9805   10.4835 N.2     1  UNL1       -0.2578
      6 C          63.2020   90.6295   11.6654 C.3     1  UNL1        0.1970
      7 C          64.0971   91.5700   12.4166 C.2     1  UNL1        0.2489
      8 O          63.9361   91.7356   13.8987 O.2     1  UNL1       -0.2726
      9 N          65.1532   92.3448   11.6857 N.am    1  UNL1       -0.3006
     10 H          65.2589   92.2361   10.7130 H       1  UNL1        0.1497
     11 C          66.0484   93.2853   12.4369 C.3     1  UNL1        0.0937
     12 C          66.2842   94.6723   11.9168 C.3     1  UNL1        0.0259
     13 C          66.7076   92.8387   13.7081 C.2     1  UNL1        0.0203
     14 C          66.5828   93.5035   15.0469 C.2     1  UNL1        0.1168
     15 N          67.4054   92.7245   16.0298 N.2     1  UNL1       -0.1513
     16 N          68.0387   91.5781   15.2986 N.2     1  UNL1       -0.1698
     17 C          67.6074   91.6487   13.8636 C.3     1  UNL1        0.1745
     18 C          61.5418   87.2063   10.8972 C.3     1  UNL1        0.0552
     19 C          61.5882   86.4607    9.5963 C.ar    1  UNL1        0.0014
     20 C          62.8462   85.7588    9.1786 C.ar    1  UNL1       -0.0009
     21 C          62.8926   85.0134    7.8778 C.ar    1  UNL1        0.0228
     22 C          61.6808   84.9698    6.9948 C.ar    1  UNL1        0.1526
     23 N          60.4228   85.6717    7.4125 N.ar    1  UNL1       -0.2402
     24 C          60.3764   86.4172    8.7133 C.ar    1  UNL1        0.0948
     25 C          61.7272   84.2243    5.6939 C.3     1  UNL1        0.4348
     26 F          61.7737   83.4788    4.3932 F       1  UNL1       -0.1644
     27 F          60.3097   83.7787    5.8987 F       1  UNL1       -0.1644
     28 F          63.1448   84.6699    5.4892 F       1  UNL1       -0.1644
@<TRIPOS>BOND
     1     1     2    1
     2     2     3    2
     3     3    18    1
     4    18    19    1
     5    19    20   ar
     6    20    21   ar
     7    21    22   ar
     8    22    25    1
     9    25    26    1
    10    25    27    1
    11    25    28    1
    12    22    23   ar
    13    23    24   ar
    14     3     4    1
    15     4     5    2
    16     5     6    1
    17     6     7    1
    18     7     8    2
    19     7     9   am
    20     9    11    1
    21    11    12    1
    22    11    13    1
    23    13    14    2
    24    14    15    1
    25    15    16    2
    26    16    17    1
    27     6     2    1
    28    17    13    1
    29    24    19   ar
    30     9    10    1
@<TRIPOS>MOLECULE
*****
 28 30 0 0 0
SMALL
GASTEIGER

@<TRIPOS>ATOM
      1 C          62.8087   88.6328   11.3867 C.3     1  UNL1        0.0285
      2 C          63.3999   88.2422   12.7087 C.2     1  UNL1       -0.0154
      3 C          63.9685   89.1801   13.7320 C.2     1  UNL1       -0.0046
      4 C          64.4464   88.3626   14.8953 C.2     1  UNL1        0.0895
      5 N          64.1731   86.9194   14.5911 N.2     1  UNL1       -0.2578
      6 C          63.5264   86.8450   13.2397 C.3     1  UNL1        0.1970
      7 C          63.0838   85.5932   12.5417 C.2     1  UNL1        0.2489
      8 O          61.7459   85.5446   11.8653 O.2     1  UNL1       -0.2726
      9 N          63.9792   84.3899   12.5202 N.am    1  UNL1       -0.3006
     10 H          64.8573   84.4218   12.9642 H       1  UNL1        0.1497
     11 C          63.5367   83.1380   11.8223 C.3     1  UNL1        0.0937
     12 C          63.7904   82.9684   10.3538 C.3     1  UNL1        0.0259
     13 C          62.8404   82.0558   12.5932 C.2     1  UNL1        0.0203
     14 C          62.8324   80.5954   12.2514 C.2     1  UNL1        0.1168
     15 N          62.0169   79.8811   13.2881 N.2     1  UNL1       -0.1513
     16 N          61.5209   80.9002   14.2707 N.2     1  UNL1       -0.1698
     17 C          62.0299   82.2443   13.8412 C.3     1  UNL1        0.1745
     18 C          64.0457   90.6733   13.6128 C.3     1  UNL1        0.0552
     19 C          65.2211   91.4114   14.1818 C.ar    1  UNL1        0.0014
     20 C          65.2015   91.8645   15.6116 C.ar    1  UNL1       -0.0009
     21 C          66.3769   92.6025   16.1806 C.ar    1  UNL1        0.0228
     22 C          67.5718   92.8875   15.3198 C.ar    1  UNL1        0.1526
     23 N          67.5913   92.4345   13.8900 N.ar    1  UNL1       -0.2402
     24 C          66.4160   91.6965   13.3210 C.ar    1  UNL1        0.0948
     25 C          68.7472   93.6256   15.8888 C.3     1  UNL1        0.4348
     26 F          69.9225   94.3637   16.4578 F       1  UNL1       -0.1644
     27 F          68.2258   94.9055   15.3057 F       1  UNL1       -0.1644
     28 F          69.2685   92.3458   16.4719 F       1  UNL1       -0.1644
@<TRIPOS>BOND
     1     1     2    1
     2     2     3    2
     3     3    18    1
     4    18    19    1
     5    19    20   ar
     6    20    21   ar
     7    21    22   ar
     8    22    25    1
     9    25    26    1
    10    25    27    1
    11    25    28    1
    12    22    23   ar
    13    23    24   ar
    14     3     4    1
    15     4     5    2
    16     5     6    1
    17     6     7    1
    18     7     8    2
    19     7     9   am
    20     9    11    1
    21    11    12    1
    22    11    13    1
    23    13    14    2
    24    14    15    1
    25    15    16    2
    26    16    17    1
    27     6     2    1
    28    17    13    1
    29    24    19   ar
    30     9    10    1
@<TRIPOS>MOLECULE
*****
 28 30 0 0 0
SMALL
GASTEIGER

@<TRIPOS>ATOM
      1 C          62.9050   91.0268   10.1520 C.3     1  UNL1        0.0285
      2 C          63.0000   90.7293   11.6191 C.2     1  UNL1       -0.0154
      3 C          62.0636   89.8601   12.4050 C.2     1  UNL1       -0.0046
      4 C          62.5331   89.8424   13.8295 C.2     1  UNL1        0.0895
      5 N          63.7597   90.7006   13.9241 N.2     1  UNL1       -0.2578
      6 C          64.0483   91.2487   12.5580 C.3     1  UNL1        0.1970
      7 C          65.1854   92.1569   12.1945 C.2     1  UNL1        0.2489
      8 O          66.5263   91.9757   12.8419 O.2     1  UNL1       -0.2726
      9 N          64.9817   93.2463   11.1837 N.am    1  UNL1       -0.3006
     10 H          64.1016   93.3652   10.7588 H       1  UNL1        0.1497
     11 C          66.1188   94.1545   10.8202 C.3     1  UNL1        0.0937
     12 C          66.2862   95.4666   11.5273 C.3     1  UNL1        0.0259
     13 C          67.0886   93.7503    9.7494 C.2     1  UNL1        0.0203
     14 C          67.8956   92.4863    9.7223 C.2     1  UNL1        0.1168
     15 N          68.7273   92.4941    8.4740 N.2     1  UNL1       -0.1513
     16 N          68.4342   93.7629    7.7296 N.2     1  UNL1       -0.1698
     17 C          67.4214   94.5394    8.5179 C.3     1  UNL1        0.1745
     18 C          60.8677   89.1358   11.8617 C.3     1  UNL1        0.0552
     19 C          61.0300   88.1613   10.7330 C.ar    1  UNL1        0.0014
     20 C          62.1095   87.1214   10.7893 C.ar    1  UNL1       -0.0009
     21 C          62.2717   86.1469    9.6606 C.ar    1  UNL1        0.0228
     22 C          61.3544   86.2123    8.4756 C.ar    1  UNL1        0.1526
     23 N          60.2749   87.2522    8.4192 N.ar    1  UNL1       -0.2402
     24 C          60.1127   88.2267    9.5479 C.ar    1  UNL1        0.0948
     25 C          61.5166   85.2378    7.3468 C.3     1  UNL1        0.4348
     26 F          61.6788   84.2632    6.2181 F       1  UNL1       -0.1644
     27 F          62.9901   85.1679    7.6189 F       1  UNL1       -0.1644
     28 F          60.0432   85.3076    7.0747 F       1  UNL1       -0.1644
@<TRIPOS>BOND
     1     1     2    1
     2     2     3    2
     3     3    18    1
     4    18    19    1
     5    19    20   ar
     6    20    21   ar
     7    21    22   ar
     8    22    25    1
     9    25    26    1
    10    25    27    1
    11    25    28    1
    12    22    23   ar
    13    23    24   ar
    14     3     4    1
    15     4     5    2
    16     5     6    1
    17     6     7    1
    18     7     8    2
    19     7     9   am
    20     9    11    1
    21    11    12    1
    22    11    13    1
    23    13    14    2
    24    14    15    1
    25    15    16    2
    26    16    17    1
    27     6     2    1
    28    17    13    1
    29    24    19   ar
    30     9    10    1
@<TRIPOS>MOLECULE
*****
 28 30 0 0 0
SMALL
GASTEIGER

@<TRIPOS>ATOM
      1 C          65.0475   86.6469   14.5995 C.3     1  UNL1        0.0285
      2 C          63.9881   86.8366   15.6443 C.2     1  UNL1       -0.0154
      3 C          63.3514   85.7519   16.4615 C.2     1  UNL1       -0.0046
      4 C          62.3491   86.3894   17.3776 C.2     1  UNL1        0.0895
      5 N          62.3663   87.8681   17.1264 N.2     1  UNL1       -0.2578
      6 C          63.3793   88.1445   16.0551 C.3     1  UNL1        0.1970
      7 C          63.7231   89.4922   15.4934 C.2     1  UNL1        0.2489
      8 O          63.1221   90.7296   16.0915 O.2     1  UNL1       -0.2726
      9 N          64.6680   89.6026   14.3336 N.am    1  UNL1       -0.3006
     10 H          65.0624   88.7904   13.9411 H       1  UNL1        0.1497
     11 C          65.0118   90.9502   13.7718 C.3     1  UNL1        0.0937
     12 C          64.2217   91.5089   12.6258 C.3     1  UNL1        0.0259
     13 C          66.1460   91.7391   14.3562 C.2     1  UNL1        0.0203
     14 C          66.1353   92.4543   15.6747 C.2     1  UNL1        0.1168
     15 N          67.4726   93.1085   15.8580 N.2     1  UNL1       -0.1513
     16 N          68.3098   92.7976   14.6528 N.2     1  UNL1       -0.1698
     17 C          67.4899   91.9513   13.7246 C.3     1  UNL1        0.1745
     18 C          63.6624   84.2870   16.3776 C.3     1  UNL1        0.0552
     19 C          63.5220   83.5641   15.0707 C.ar    1  UNL1        0.0014
     20 C          64.6151   83.6466   14.0468 C.ar    1  UNL1       -0.0009
     21 C          64.4748   82.9238   12.7400 C.ar    1  UNL1        0.0228
     22 C          63.2413   82.1185   12.4571 C.ar    1  UNL1        0.1526
     23 N          62.1482   82.0360   13.4809 N.ar    1  UNL1       -0.2402
     24 C          62.2886   82.7588   14.7877 C.ar    1  UNL1        0.0948
     25 C          63.1010   81.3957   11.1502 C.3     1  UNL1        0.4348
     26 F          62.9607   80.6729    9.8433 F       1  UNL1       -0.1644
     27 F          62.6572   80.1626   11.8798 F       1  UNL1       -0.1644
     28 F          63.5448   82.6288   10.4205 F       1  UNL1       -0.1644
@<TRIPOS>BOND
     1     1     2    1
     2     2     3    2
     3     3    18    1
     4    18    19    1
     5    19    20   ar
     6    20    21   ar
     7    21    22   ar
     8    22    25    1
     9    25    26    1
    10    25    27    1
    11    25    28    1
    12    22    23   ar
    13    23    24   ar
    14     3     4    1
    15     4     5    2
    16     5     6    1
    17     6     7    1
    18     7     8    2
    19     7     9   am
    20     9    11    1
    21    11    12    1
    22    11    13    1
    23    13    14    2
    24    14    15    1
    25    15    16    2
    26    16    17    1
    27     6     2    1
    28    17    13    1
    29    24    19   ar
    30     9    10    1
@<TRIPOS>MOLECULE
*****
 28 30 0 0 0
SMALL
GASTEIGER

@<TRIPOS>ATOM
      1 C          63.1719   87.5935   12.2934 C.3     1  UNL1        0.0285
      2 C          62.3501   87.7408   11.0473 C.2     1  UNL1       -0.0154
      3 C          61.6131   88.9747   10.6179 C.2     1  UNL1       -0.0046
      4 C          60.9285   88.6765    9.3169 C.2     1  UNL1        0.0895
      5 N          61.2424   87.2584    8.9423 N.2     1  UNL1       -0.2578
      6 C          62.1210   86.6801   10.0118 C.3     1  UNL1        0.1970
      7 C          62.6735   85.2858   10.0406 C.2     1  UNL1        0.2489
      8 O          63.1456   84.6398    8.7719 O.2     1  UNL1       -0.2726
      9 N          62.7539   84.5376   11.3382 N.am    1  UNL1       -0.3006
     10 H          62.4440   84.9616   12.1709 H       1  UNL1        0.1497
     11 C          63.3063   83.1433   11.3671 C.3     1  UNL1        0.0937
     12 C          64.3305   82.7213   10.3557 C.3     1  UNL1        0.0259
     13 C          62.8345   82.1712   12.4075 C.2     1  UNL1        0.0203
     14 C          62.7696   80.6803   12.2562 C.2     1  UNL1        0.1168
     15 N          62.2398   80.1070   13.5371 N.2     1  UNL1       -0.1513
     16 N          61.9773   81.2436   14.4800 N.2     1  UNL1       -0.1698
     17 C          62.3449   82.5194   13.7819 C.3     1  UNL1        0.1745
     18 C          61.5685   90.2779   11.3592 C.3     1  UNL1        0.0552
     19 C          62.8327   90.8754   11.9023 C.ar    1  UNL1        0.0014
     20 C          63.8237   91.5081   10.9710 C.ar    1  UNL1       -0.0009
     21 C          65.0878   92.1056   11.5141 C.ar    1  UNL1        0.0228
     22 C          65.3608   92.0704   12.9886 C.ar    1  UNL1        0.1526
     23 N          64.3698   91.4378   13.9200 N.ar    1  UNL1       -0.2402
     24 C          63.1057   90.8403   13.3769 C.ar    1  UNL1        0.0948
     25 C          66.6250   92.6680   13.5318 C.3     1  UNL1        0.4348
     26 F          67.8891   93.2655   14.0749 F       1  UNL1       -0.1644
     27 F          66.1628   94.0307   13.1083 F       1  UNL1       -0.1644
     28 F          67.0872   91.3053   13.9552 F       1  UNL1       -0.1644
@<TRIPOS>BOND
     1     1     2    1
     2     2     3    2
     3     3    18    1
     4    18    19    1
     5    19    20   ar
     6    20    21   ar
     7    21    22   ar
     8    22    25    1
     9    25    26    1
    10    25    27    1
    11    25    28    1
    12    22    23   ar
    13    23    24   ar
    14     3     4    1
    15     4     5    2
    16     5     6    1
    17     6     7    1
    18     7     8    2
    19     7     9   am
    20     9    11    1
    21    11    12    1
    22    11    13    1
    23    13    14    2
    24    14    15    1
    25    15    16    2
    26    16    17    1
    27     6     2    1
    28    17    13    1
    29    24    19   ar
    30     9    10    1
@<TRIPOS>MOLECULE
*****
 28 30 0 0 0
SMALL
GASTEIGER

@<TRIPOS>ATOM
      1 C          62.6465   90.2469   11.2666 C.3     1  UNL1        0.0285
      2 C          63.2209   89.3837   12.3504 C.2     1  UNL1       -0.0154
      3 C          63.9706   89.8654   13.5570 C.2     1  UNL1       -0.0046
      4 C          64.3595   88.6665   14.3703 C.2     1  UNL1        0.0895
      5 N          63.8502   87.4438   13.6663 N.2     1  UNL1       -0.2578
      6 C          63.1465   87.8870   12.4180 C.3     1  UNL1        0.1970
      7 C          62.4845   86.9909   11.4135 C.2     1  UNL1        0.2489
      8 O          61.5087   85.9465   11.8683 O.2     1  UNL1       -0.2726
      9 N          62.7984   87.1393    9.9542 N.am    1  UNL1       -0.3006
     10 H          63.4389   87.8248    9.6557 H       1  UNL1        0.1497
     11 C          62.1365   86.2433    8.9497 C.3     1  UNL1        0.0937
     12 C          62.8670   85.0471    8.4155 C.3     1  UNL1        0.0259
     13 C          60.7441   86.5436    8.4795 C.2     1  UNL1        0.0203
     14 C          59.9764   85.7721    7.4474 C.2     1  UNL1        0.1168
     15 N          58.6328   86.4198    7.2889 N.2     1  UNL1       -0.1513
     16 N          58.5701   87.5917    8.2231 N.2     1  UNL1       -0.1698
     17 C          59.8750   87.6682    8.9590 C.3     1  UNL1        0.1745
     18 C          64.2775   91.2950   13.8916 C.3     1  UNL1        0.0552
     19 C          65.0331   92.1480   12.9161 C.ar    1  UNL1        0.0014
     20 C          64.6790   92.1142   11.4589 C.ar    1  UNL1       -0.0009
     21 C          65.4347   92.9672   10.4835 C.ar    1  UNL1        0.0228
     22 C          66.5444   93.8540   10.9653 C.ar    1  UNL1        0.1526
     23 N          66.8985   93.8878   12.4225 N.ar    1  UNL1       -0.2402
     24 C          66.1429   93.0348   13.3979 C.ar    1  UNL1        0.0948
     25 C          67.3000   94.7070    9.9899 C.3     1  UNL1        0.4348
     26 F          68.0556   95.5600    9.0145 F       1  UNL1       -0.1644
     27 F          67.5724   93.4986    9.1440 F       1  UNL1       -0.1644
     28 F          67.0277   95.9154   10.8357 F       1  UNL1       -0.1644
@<TRIPOS>BOND
     1     1     2    1
     2     2     3    2
     3     3    18    1
     4    18    19    1
     5    19    20   ar
     6    20    21   ar
     7    21    22   ar
     8    22    25    1
     9    25    26    1
    10    25    27    1
    11    25    28    1
    12    22    23   ar
    13    23    24   ar
    14     3     4    1
    15     4     5    2
    16     5     6    1
    17     6     7    1
    18     7     8    2
    19     7     9   am
    20     9    11    1
    21    11    12    1
    22    11    13    1
    23    13    14    2
    24    14    15    1
    25    15    16    2
    26    16    17    1
    27     6     2    1
    28    17    13    1
    29    24    19   ar
    30     9    10    1
