@<TRIPOS>MOLECULE
*****
 28 30 0 0 0
SMALL
GASTEIGER

@<TRIPOS>ATOM
      1 O          62.3556   89.3537   16.3340 O.2     1  UNL1       -0.2732
      2 C          63.2694   88.2148   15.9906 C.2     1  UNL1        0.2430
      3 N          64.2817   88.3697   14.8946 N.am    1  UNL1       -0.2956
      4 H          64.8814   87.6222   14.6692 H       1  UNL1        0.1501
      5 C          63.1710   86.9211   16.7432 C.3     1  UNL1        0.1759
      6 N          62.8341   85.6535   16.0152 N.am    1  UNL1       -0.2931
      7 C          63.8513   85.0095   15.1205 C.2     1  UNL1        0.2462
      8 O          65.2054   85.6330   14.9538 O.2     1  UNL1       -0.2701
      9 H          61.9454   85.2443   16.1245 H       1  UNL1        0.1502
     10 C          63.5145   83.7420   14.3924 C.ar    1  UNL1        0.0535
     11 C          62.3652   82.8953   14.8530 C.ar    1  UNL1        0.0068
     12 C          62.0284   81.6279   14.1249 C.ar    1  UNL1        0.0298
     13 C          62.8409   81.2071   12.9363 C.ar    1  UNL1        0.1401
     14 F          62.5040   79.9396   12.2082 F       1  UNL1       -0.2042
     15 C          63.9902   82.0538   12.4757 C.ar    1  UNL1        0.0298
     16 C          64.3270   83.3213   13.2038 C.ar    1  UNL1        0.0068
     17 C          64.3801   89.6635   14.1419 C.3     1  UNL1        0.1412
     18 C          63.7318   89.7994   12.7961 C.ar    1  UNL1        0.0017
     19 C          63.0268   88.6268   12.1814 C.ar    1  UNL1       -0.0023
     20 C          62.3784   88.7628   10.8356 C.ar    1  UNL1       -0.0003
     21 C          62.4352   90.0713   10.1044 C.ar    1  UNL1       -0.0000
     22 C          63.1403   91.2439   10.7192 C.ar    1  UNL1       -0.0003
     23 C          63.7886   91.1080   12.0650 C.ar    1  UNL1       -0.0023
     24 C          65.1269   90.8213   14.7350 C.ar    1  UNL1        0.1104
     25 N          64.6210   91.7410   15.8065 N.ar    1  UNL1       -0.2392
     26 C          65.6921   92.7507   16.0946 C.ar    1  UNL1        0.1061
     27 C          66.8601   92.4551   15.2011 C.ar    1  UNL1        0.0573
     28 S          66.5109   91.2626   14.3608 S.2     1  UNL1       -0.0683
@<TRIPOS>BOND
     1     1     2    2
     2     2     5    1
     3     5     6    1
     4     6     7   am
     5     7     8    2
     6     7    10    1
     7    10    11   ar
     8    11    12   ar
     9    12    13   ar
    10    13    14    1
    11    13    15   ar
    12    15    16   ar
    13     2     3   am
    14     3    17    1
    15    17    18    1
    16    18    19   ar
    17    19    20   ar
    18    20    21   ar
    19    21    22   ar
    20    22    23   ar
    21    17    24    1
    22    24    25   ar
    23    25    26   ar
    24    26    27   ar
    25    27    28   ar
    26    16    10   ar
    27    23    18   ar
    28    28    24   ar
    29     6     9    1
    30     3     4    1
@<TRIPOS>MOLECULE
*****
 28 30 0 0 0
SMALL
GASTEIGER

@<TRIPOS>ATOM
      1 O          59.9268   88.0320   11.5892 O.2     1  UNL1       -0.2732
      2 C          61.2160   88.7656   11.3657 C.2     1  UNL1        0.2430
      3 N          62.4311   88.0212   10.8975 N.am    1  UNL1       -0.2956
      4 H          63.2772   88.5027   10.7509 H       1  UNL1        0.1501
      5 C          61.2900   90.2436   11.6105 C.3     1  UNL1        0.1759
      6 N          62.6063   90.8849   11.9363 N.am    1  UNL1       -0.2931
      7 C          63.2158   90.6983   13.2941 C.2     1  UNL1        0.2462
      8 O          62.5091   89.8705   14.3262 O.2     1  UNL1       -0.2701
      9 H          63.0702   91.4283   11.2590 H       1  UNL1        0.1502
     10 C          64.5322   91.3397   13.6199 C.ar    1  UNL1        0.0535
     11 C          65.1071   91.2129   14.9995 C.ar    1  UNL1        0.0068
     12 C          66.4234   91.8542   15.3252 C.ar    1  UNL1        0.0298
     13 C          67.1647   92.6223   14.2714 C.ar    1  UNL1        0.1401
     14 F          68.4810   93.2636   14.5972 F       1  UNL1       -0.2042
     15 C          66.5897   92.7490   12.8918 C.ar    1  UNL1        0.0298
     16 C          65.2735   92.1077   12.5661 C.ar    1  UNL1        0.0068
     17 C          62.3572   86.5431   10.6527 C.3     1  UNL1        0.1412
     18 C          61.9846   86.0255    9.2951 C.ar    1  UNL1        0.0017
     19 C          60.5891   86.2126    8.7781 C.ar    1  UNL1       -0.0023
     20 C          60.2164   85.6950    7.4204 C.ar    1  UNL1       -0.0003
     21 C          61.2395   84.9902    6.5797 C.ar    1  UNL1       -0.0000
     22 C          62.6351   84.8031    7.0968 C.ar    1  UNL1       -0.0003
     23 C          63.0077   85.3207    8.4544 C.ar    1  UNL1       -0.0023
     24 C          62.6558   85.5827   11.7656 C.ar    1  UNL1        0.1104
     25 N          63.0816   85.9495   13.1563 N.ar    1  UNL1       -0.2392
     26 C          63.2700   84.6804   13.9334 C.ar    1  UNL1        0.1061
     27 C          62.9607   83.5292   13.0229 C.ar    1  UNL1        0.0573
     28 S          62.5810   84.0868   11.6831 S.2     1  UNL1       -0.0683
@<TRIPOS>BOND
     1     1     2    2
     2     2     5    1
     3     5     6    1
     4     6     7   am
     5     7     8    2
     6     7    10    1
     7    10    11   ar
     8    11    12   ar
     9    12    13   ar
    10    13    14    1
    11    13    15   ar
    12    15    16   ar
    13     2     3   am
    14     3    17    1
    15    17    18    1
    16    18    19   ar
    17    19    20   ar
    18    20    21   ar
    19    21    22   ar
    20    22    23   ar
    21    17    24    1
    22    24    25   ar
    23    25    26   ar
    24    26    27   ar
    25    27    28   ar
    26    16    10   ar
    27    23    18   ar
    28    28    24   ar
    29     6     9    1
    30     3     4    1
@<TRIPOS>MOLECULE
*****
 28 30 0 0 0
SMALL
GASTEIGER

@<TRIPOS>ATOM
      1 O          65.1057   90.0988   14.1957 O.2     1  UNL1       -0.2732
      2 C          64.1177   90.6453   13.2081 C.2     1  UNL1        0.2430
      3 N          64.4898   91.8125   12.3426 N.am    1  UNL1       -0.2956
      4 H          63.8414   92.1712   11.6944 H       1  UNL1        0.1501
      5 C          62.7577   90.0245   13.0859 C.3     1  UNL1        0.1759
      6 N          62.5097   88.9570   12.0616 N.am    1  UNL1       -0.2931
      7 C          61.5751   89.2178   10.9178 C.2     1  UNL1        0.2462
      8 O          60.8884   90.5460   10.7981 O.2     1  UNL1       -0.2701
      9 H          62.9604   88.0853   12.1402 H       1  UNL1        0.1502
     10 C          61.3271   88.1503    9.8935 C.ar    1  UNL1        0.0535
     11 C          60.0540   88.1532    9.1004 C.ar    1  UNL1        0.0068
     12 C          59.8061   87.0857    8.0762 C.ar    1  UNL1        0.0298
     13 C          60.8312   86.0154    7.8451 C.ar    1  UNL1        0.1401
     14 F          60.5833   84.9479    6.8209 F       1  UNL1       -0.2042
     15 C          62.1044   86.0125    8.6382 C.ar    1  UNL1        0.0298
     16 C          62.3523   87.0800    9.6624 C.ar    1  UNL1        0.0068
     17 C          65.8499   92.4333   12.4648 C.3     1  UNL1        0.1412
     18 C          66.5223   93.0105   11.2545 C.ar    1  UNL1        0.0017
     19 C          66.1672   94.3904   10.7858 C.ar    1  UNL1       -0.0023
     20 C          66.8397   94.9676    9.5755 C.ar    1  UNL1       -0.0003
     21 C          67.8671   94.1649    8.8340 C.ar    1  UNL1       -0.0000
     22 C          68.2222   92.7849    9.3027 C.ar    1  UNL1       -0.0003
     23 C          67.5498   92.2077   10.5130 C.ar    1  UNL1       -0.0023
     24 C          66.5375   92.4769   13.7972 C.ar    1  UNL1        0.1104
     25 N          65.9596   93.0204   15.0702 N.ar    1  UNL1       -0.2392
     26 C          66.9887   92.8641   16.1503 C.ar    1  UNL1        0.1061
     27 C          68.2026   92.2240   15.5448 C.ar    1  UNL1        0.0573
     28 S          67.9239   91.9847   14.0904 S.2     1  UNL1       -0.0683
@<TRIPOS>BOND
     1     1     2    2
     2     2     5    1
     3     5     6    1
     4     6     7   am
     5     7     8    2
     6     7    10    1
     7    10    11   ar
     8    11    12   ar
     9    12    13   ar
    10    13    14    1
    11    13    15   ar
    12    15    16   ar
    13     2     3   am
    14     3    17    1
    15    17    18    1
    16    18    19   ar
    17    19    20   ar
    18    20    21   ar
    19    21    22   ar
    20    22    23   ar
    21    17    24    1
    22    24    25   ar
    23    25    26   ar
    24    26    27   ar
    25    27    28   ar
    26    16    10   ar
    27    23    18   ar
    28    28    24   ar
    29     6     9    1
    30     3     4    1
@<TRIPOS>MOLECULE
*****
 28 30 0 0 0
SMALL
GASTEIGER

@<TRIPOS>ATOM
      1 O          63.0646   89.1862   15.4235 O.2     1  UNL1       -0.2732
      2 C          63.7313   88.1813   14.5314 C.2     1  UNL1        0.2430
      3 N          63.8770   88.4603   13.0649 N.am    1  UNL1       -0.2956
      4 H          64.3146   87.8007   12.4794 H       1  UNL1        0.1501
      5 C          64.2522   86.8974   15.1060 C.3     1  UNL1        0.1759
      6 N          64.1490   85.6260   14.3166 N.am    1  UNL1       -0.2931
      7 C          63.0803   84.6253   14.6429 C.2     1  UNL1        0.2462
      8 O          62.1148   84.8959   15.7585 O.2     1  UNL1       -0.2701
      9 H          64.7827   85.4484   13.5844 H       1  UNL1        0.1502
     10 C          62.9771   83.3539   13.8535 C.ar    1  UNL1        0.0535
     11 C          62.1877   82.1982   14.3929 C.ar    1  UNL1        0.0068
     12 C          62.0845   80.9269   13.6035 C.ar    1  UNL1        0.0298
     13 C          62.7708   80.8114   12.2748 C.ar    1  UNL1        0.1401
     14 F          62.6675   79.5400   11.4854 F       1  UNL1       -0.2042
     15 C          63.5602   81.9671   11.7353 C.ar    1  UNL1        0.0298
     16 C          63.6634   83.2384   12.5247 C.ar    1  UNL1        0.0068
     17 C          63.3560   89.7442   12.4903 C.3     1  UNL1        0.1412
     18 C          64.2477   90.9480   12.4136 C.ar    1  UNL1        0.0017
     19 C          65.0406   91.3716   13.6143 C.ar    1  UNL1       -0.0023
     20 C          65.9324   92.5754   13.5377 C.ar    1  UNL1       -0.0003
     21 C          66.0312   93.3554   12.2603 C.ar    1  UNL1       -0.0000
     22 C          65.2383   92.9317   11.0595 C.ar    1  UNL1       -0.0003
     23 C          64.3466   91.7280   11.1362 C.ar    1  UNL1       -0.0023
     24 C          61.9434   89.8244   11.9923 C.ar    1  UNL1        0.1104
     25 N          60.7053   89.6436   12.8197 N.ar    1  UNL1       -0.2392
     26 C          59.5175   89.8069   11.9183 C.ar    1  UNL1        0.1061
     27 C          60.0214   90.0886   10.5339 C.ar    1  UNL1        0.0573
     28 S          61.5207   90.0995   10.5796 S.2     1  UNL1       -0.0683
@<TRIPOS>BOND
     1     1     2    2
     2     2     5    1
     3     5     6    1
     4     6     7   am
     5     7     8    2
     6     7    10    1
     7    10    11   ar
     8    11    12   ar
     9    12    13   ar
    10    13    14    1
    11    13    15   ar
    12    15    16   ar
    13     2     3   am
    14     3    17    1
    15    17    18    1
    16    18    19   ar
    17    19    20   ar
    18    20    21   ar
    19    21    22   ar
    20    22    23   ar
    21    17    24    1
    22    24    25   ar
    23    25    26   ar
    24    26    27   ar
    25    27    28   ar
    26    16    10   ar
    27    23    18   ar
    28    28    24   ar
    29     6     9    1
    30     3     4    1
@<TRIPOS>MOLECULE
*****
 28 30 0 0 0
SMALL
GASTEIGER

@<TRIPOS>ATOM
      1 O          63.0685   89.5297   10.1571 O.2     1  UNL1       -0.2732
      2 C          62.3064   89.2781   11.4243 C.2     1  UNL1        0.2430
      3 N          61.4568   88.0490   11.5570 N.am    1  UNL1       -0.2956
      4 H          60.9566   87.8839   12.3888 H       1  UNL1        0.1501
      5 C          62.3939   90.2554   12.5588 C.3     1  UNL1        0.1759
      6 N          63.7038   90.9088   12.8865 N.am    1  UNL1       -0.2931
      7 C          64.1922   90.9404   14.3044 C.2     1  UNL1        0.2462
      8 O          63.3707   90.3185   15.3946 O.2     1  UNL1       -0.2701
      9 H          64.2429   91.3170   12.1710 H       1  UNL1        0.1502
     10 C          65.5020   91.5939   14.6321 C.ar    1  UNL1        0.0535
     11 C          65.6905   92.2739   15.9557 C.ar    1  UNL1        0.0068
     12 C          67.0003   92.9273   16.2834 C.ar    1  UNL1        0.0298
     13 C          68.1216   92.9007   15.2875 C.ar    1  UNL1        0.1401
     14 F          69.4315   93.5541   15.6152 F       1  UNL1       -0.2042
     15 C          67.9332   92.2206   13.9638 C.ar    1  UNL1        0.0298
     16 C          66.6234   91.5672   13.6362 C.ar    1  UNL1        0.0068
     17 C          61.3693   87.0716   10.4225 C.3     1  UNL1        0.1412
     18 C          62.1875   85.8148   10.4506 C.ar    1  UNL1        0.0017
     19 C          62.8597   85.3295    9.2006 C.ar    1  UNL1       -0.0023
     20 C          63.6780   84.0726    9.2286 C.ar    1  UNL1       -0.0003
     21 C          63.8239   83.3010   10.5066 C.ar    1  UNL1       -0.0000
     22 C          63.1516   83.7864   11.7567 C.ar    1  UNL1       -0.0003
     23 C          62.3335   85.0432   11.7286 C.ar    1  UNL1       -0.0023
     24 C          60.4635   87.3511    9.2600 C.ar    1  UNL1        0.1104
     25 N          59.7300   86.3257    8.4473 N.ar    1  UNL1       -0.2392
     26 C          58.9454   87.0460    7.3911 C.ar    1  UNL1        0.1061
     27 C          59.1941   88.5166    7.5509 C.ar    1  UNL1        0.0573
     28 S          60.1323   88.7052    8.7060 S.2     1  UNL1       -0.0683
@<TRIPOS>BOND
     1     1     2    2
     2     2     5    1
     3     5     6    1
     4     6     7   am
     5     7     8    2
     6     7    10    1
     7    10    11   ar
     8    11    12   ar
     9    12    13   ar
    10    13    14    1
    11    13    15   ar
    12    15    16   ar
    13     2     3   am
    14     3    17    1
    15    17    18    1
    16    18    19   ar
    17    19    20   ar
    18    20    21   ar
    19    21    22   ar
    20    22    23   ar
    21    17    24    1
    22    24    25   ar
    23    25    26   ar
    24    26    27   ar
    25    27    28   ar
    26    16    10   ar
    27    23    18   ar
    28    28    24   ar
    29     6     9    1
    30     3     4    1
@<TRIPOS>MOLECULE
*****
 28 30 0 0 0
SMALL
GASTEIGER

@<TRIPOS>ATOM
      1 O          64.2470   90.2085   12.0767 O.2     1  UNL1       -0.2732
      2 C          62.7844   90.2410   12.4078 C.2     1  UNL1        0.2430
      3 N          62.3300   90.0199   13.8201 N.am    1  UNL1       -0.2956
      4 H          61.3700   90.0412   14.0374 H       1  UNL1        0.1501
      5 C          61.7761   90.4947   11.3267 C.3     1  UNL1        0.1759
      6 N          61.6163   89.5120   10.2046 N.am    1  UNL1       -0.2931
      7 C          61.7746   88.0434   10.4656 C.2     1  UNL1        0.2462
      8 O          62.0928   87.5574   11.8485 O.2     1  UNL1       -0.2701
      9 H          61.4074   89.8310    9.2969 H       1  UNL1        0.1502
     10 C          61.6148   87.0608    9.3435 C.ar    1  UNL1        0.0535
     11 C          60.3026   86.9493    8.6254 C.ar    1  UNL1        0.0068
     12 C          60.1428   85.9667    7.5034 C.ar    1  UNL1        0.0298
     13 C          61.2952   85.0955    7.0996 C.ar    1  UNL1        0.1401
     14 F          61.1353   84.1129    5.9775 F       1  UNL1       -0.2042
     15 C          62.6073   85.2070    7.8177 C.ar    1  UNL1        0.0298
     16 C          62.7671   86.1896    8.9397 C.ar    1  UNL1        0.0068
     17 C          63.3383   89.7662   14.9014 C.3     1  UNL1        0.1412
     18 C          63.5106   88.3835   15.4568 C.ar    1  UNL1        0.0017
     19 C          64.2861   87.3568   14.6859 C.ar    1  UNL1       -0.0023
     20 C          64.4584   85.9741   15.2413 C.ar    1  UNL1       -0.0003
     21 C          63.8552   85.6181   16.5677 C.ar    1  UNL1       -0.0000
     22 C          63.0796   86.6449   17.3387 C.ar    1  UNL1       -0.0003
     23 C          62.9073   88.0275   16.7832 C.ar    1  UNL1       -0.0023
     24 C          64.1743   90.8952   15.4272 C.ar    1  UNL1        0.1104
     25 N          63.8358   91.7732   16.5953 N.ar    1  UNL1       -0.2392
     26 C          64.9479   92.7651   16.7672 C.ar    1  UNL1        0.1061
     27 C          65.9736   92.5001   15.7054 C.ar    1  UNL1        0.0573
     28 S          65.4956   91.3444   14.8771 S.2     1  UNL1       -0.0683
@<TRIPOS>BOND
     1     1     2    2
     2     2     5    1
     3     5     6    1
     4     6     7   am
     5     7     8    2
     6     7    10    1
     7    10    11   ar
     8    11    12   ar
     9    12    13   ar
    10    13    14    1
    11    13    15   ar
    12    15    16   ar
    13     2     3   am
    14     3    17    1
    15    17    18    1
    16    18    19   ar
    17    19    20   ar
    18    20    21   ar
    19    21    22   ar
    20    22    23   ar
    21    17    24    1
    22    24    25   ar
    23    25    26   ar
    24    26    27   ar
    25    27    28   ar
    26    16    10   ar
    27    23    18   ar
    28    28    24   ar
    29     6     9    1
    30     3     4    1
@<TRIPOS>MOLECULE
*****
 28 30 0 0 0
SMALL
GASTEIGER

@<TRIPOS>ATOM
      1 O          65.1810   84.8051   13.9248 O.2     1  UNL1       -0.2732
      2 C          63.9315   85.5333   14.3231 C.2     1  UNL1        0.2430
      3 N          62.6391   85.2461   13.6182 N.am    1  UNL1       -0.2956
      4 H          61.8190   85.7241   13.8796 H       1  UNL1        0.1501
      5 C          63.9746   86.5487   15.4262 C.3     1  UNL1        0.1759
      6 N          64.4977   87.9284   15.1558 N.am    1  UNL1       -0.2931
      7 C          64.1037   88.6469   13.8994 C.2     1  UNL1        0.2462
      8 O          63.1867   87.9859   12.9135 O.2     1  UNL1       -0.2701
      9 H          65.0996   88.3622   15.8029 H       1  UNL1        0.1502
     10 C          64.6268   90.0265   13.6289 C.ar    1  UNL1        0.0535
     11 C          65.6130   90.6525   14.5699 C.ar    1  UNL1        0.0068
     12 C          66.1361   92.0321   14.2994 C.ar    1  UNL1        0.0298
     13 C          65.6729   92.7856   13.0879 C.ar    1  UNL1        0.1401
     14 F          66.1960   94.1653   12.8174 F       1  UNL1       -0.2042
     15 C          64.6867   92.1596   12.1470 C.ar    1  UNL1        0.0298
     16 C          64.1636   90.7801   12.4175 C.ar    1  UNL1        0.0068
     17 C          62.5960   84.2306   12.5149 C.3     1  UNL1        0.1412
     18 C          62.5816   84.6785   11.0835 C.ar    1  UNL1        0.0017
     19 C          61.6098   85.7300   10.6364 C.ar    1  UNL1       -0.0023
     20 C          61.5954   86.1779    9.2048 C.ar    1  UNL1       -0.0003
     21 C          62.5529   85.5744    8.2205 C.ar    1  UNL1       -0.0000
     22 C          63.5248   84.5229    8.6677 C.ar    1  UNL1       -0.0003
     23 C          63.5391   84.0750   10.0991 C.ar    1  UNL1       -0.0023
     24 C          62.5672   82.7673   12.8433 C.ar    1  UNL1        0.1104
     25 N          62.7969   81.6424   11.8779 N.ar    1  UNL1       -0.2392
     26 C          62.6754   80.3518   12.6326 C.ar    1  UNL1        0.1061
     27 C          62.3705   80.6790   14.0644 C.ar    1  UNL1        0.0573
     28 S          62.3036   82.1719   14.1947 S.2     1  UNL1       -0.0683
@<TRIPOS>BOND
     1     1     2    2
     2     2     5    1
     3     5     6    1
     4     6     7   am
     5     7     8    2
     6     7    10    1
     7    10    11   ar
     8    11    12   ar
     9    12    13   ar
    10    13    14    1
    11    13    15   ar
    12    15    16   ar
    13     2     3   am
    14     3    17    1
    15    17    18    1
    16    18    19   ar
    17    19    20   ar
    18    20    21   ar
    19    21    22   ar
    20    22    23   ar
    21    17    24    1
    22    24    25   ar
    23    25    26   ar
    24    26    27   ar
    25    27    28   ar
    26    16    10   ar
    27    23    18   ar
    28    28    24   ar
    29     6     9    1
    30     3     4    1
@<TRIPOS>MOLECULE
*****
 28 30 0 0 0
SMALL
GASTEIGER

@<TRIPOS>ATOM
      1 O          59.9350   88.1134   11.6053 O.2     1  UNL1       -0.2732
      2 C          61.2419   88.8145   11.3801 C.2     1  UNL1        0.2430
      3 N          62.4245   88.0492   10.8646 N.am    1  UNL1       -0.2956
      4 H          63.2822   88.5093   10.7168 H       1  UNL1        0.1501
      5 C          61.3662   90.2808   11.6705 C.3     1  UNL1        0.1759
      6 N          62.7138   90.8792   11.9464 N.am    1  UNL1       -0.2931
      7 C          63.3502   90.7050   13.2935 C.2     1  UNL1        0.2462
      8 O          62.6390   89.9324   14.3647 O.2     1  UNL1       -0.2701
      9 H          63.1805   91.3862   11.2434 H       1  UNL1        0.1502
     10 C          64.6977   91.3034   13.5694 C.ar    1  UNL1        0.0535
     11 C          65.3291   92.2237   12.5673 C.ar    1  UNL1        0.0068
     12 C          66.6766   92.8220   12.8432 C.ar    1  UNL1        0.0298
     13 C          67.3927   92.5000   14.1213 C.ar    1  UNL1        0.1401
     14 F          68.7403   93.0984   14.3972 F       1  UNL1       -0.2042
     15 C          66.7614   91.5797   15.1234 C.ar    1  UNL1        0.0298
     16 C          65.4139   90.9813   14.8475 C.ar    1  UNL1        0.0068
     17 C          62.3002   86.5827   10.5742 C.3     1  UNL1        0.1412
     18 C          62.6577   85.5766   11.6277 C.ar    1  UNL1        0.0017
     19 C          62.4034   84.1178   11.3886 C.ar    1  UNL1       -0.0023
     20 C          62.7609   83.1116   12.4421 C.ar    1  UNL1       -0.0003
     21 C          63.3726   83.5643   13.7347 C.ar    1  UNL1       -0.0000
     22 C          63.6270   85.0232   13.9738 C.ar    1  UNL1       -0.0003
     23 C          63.2695   86.0293   12.9203 C.ar    1  UNL1       -0.0023
     24 C          61.8185   86.1225    9.2303 C.ar    1  UNL1        0.1104
     25 N          62.6319   85.3881    8.2061 N.ar    1  UNL1       -0.2392
     26 C          61.7549   85.1276    7.0174 C.ar    1  UNL1        0.1061
     27 C          60.3994   85.7011    7.3069 C.ar    1  UNL1        0.0573
     28 S          60.4387   86.3160    8.6745 S.2     1  UNL1       -0.0683
@<TRIPOS>BOND
     1     1     2    2
     2     2     5    1
     3     5     6    1
     4     6     7   am
     5     7     8    2
     6     7    10    1
     7    10    11   ar
     8    11    12   ar
     9    12    13   ar
    10    13    14    1
    11    13    15   ar
    12    15    16   ar
    13     2     3   am
    14     3    17    1
    15    17    18    1
    16    18    19   ar
    17    19    20   ar
    18    20    21   ar
    19    21    22   ar
    20    22    23   ar
    21    17    24    1
    22    24    25   ar
    23    25    26   ar
    24    26    27   ar
    25    27    28   ar
    26    16    10   ar
    27    23    18   ar
    28    28    24   ar
    29     6     9    1
    30     3     4    1
@<TRIPOS>MOLECULE
*****
 28 30 0 0 0
SMALL
GASTEIGER

@<TRIPOS>ATOM
      1 O          65.1800   84.8131   13.7452 O.2     1  UNL1       -0.2732
      2 C          63.9760   85.6432   14.0787 C.2     1  UNL1        0.2430
      3 N          62.7011   85.4579   13.3105 N.am    1  UNL1       -0.2956
      4 H          61.9109   86.0028   13.5294 H       1  UNL1        0.1501
      5 C          64.0470   86.6586   15.1805 C.3     1  UNL1        0.1759
      6 N          64.6314   88.0143   14.9145 N.am    1  UNL1       -0.2931
      7 C          64.0817   88.8639   13.8073 C.2     1  UNL1        0.2462
      8 O          62.9476   88.3579   12.9660 O.2     1  UNL1       -0.2701
      9 H          65.3757   88.3464   15.4667 H       1  UNL1        0.1502
     10 C          64.6661   90.2196   13.5414 C.ar    1  UNL1        0.0535
     11 C          65.6832   90.7955   14.4815 C.ar    1  UNL1        0.0068
     12 C          66.2675   92.1511   14.2156 C.ar    1  UNL1        0.0298
     13 C          65.8348   92.9309   13.0094 C.ar    1  UNL1        0.1401
     14 F          66.4192   94.2865   12.7435 F       1  UNL1       -0.2042
     15 C          64.8177   92.3550   12.0693 C.ar    1  UNL1        0.0298
     16 C          64.2334   90.9994   12.3352 C.ar    1  UNL1        0.0068
     17 C          62.6302   84.4425   12.2087 C.3     1  UNL1        0.1412
     18 C          62.5631   82.9809   12.5390 C.ar    1  UNL1        0.0017
     19 C          62.9930   81.9624   11.5252 C.ar    1  UNL1       -0.0023
     20 C          62.9260   80.5007   11.8554 C.ar    1  UNL1       -0.0003
     21 C          62.4291   80.0576   13.1996 C.ar    1  UNL1       -0.0000
     22 C          61.9992   81.0761   14.2134 C.ar    1  UNL1       -0.0003
     23 C          62.0662   82.5377   13.8831 C.ar    1  UNL1       -0.0023
     24 C          62.6262   84.8888   10.7766 C.ar    1  UNL1        0.1104
     25 N          63.4906   84.3408    9.6800 N.ar    1  UNL1       -0.2392
     26 C          63.1558   85.0747    8.4153 C.ar    1  UNL1        0.1061
     27 C          62.0845   86.0763    8.7304 C.ar    1  UNL1        0.0573
     28 S          61.7572   85.9614   10.1897 S.2     1  UNL1       -0.0683
@<TRIPOS>BOND
     1     1     2    2
     2     2     5    1
     3     5     6    1
     4     6     7   am
     5     7     8    2
     6     7    10    1
     7    10    11   ar
     8    11    12   ar
     9    12    13   ar
    10    13    14    1
    11    13    15   ar
    12    15    16   ar
    13     2     3   am
    14     3    17    1
    15    17    18    1
    16    18    19   ar
    17    19    20   ar
    18    20    21   ar
    19    21    22   ar
    20    22    23   ar
    21    17    24    1
    22    24    25   ar
    23    25    26   ar
    24    26    27   ar
    25    27    28   ar
    26    16    10   ar
    27    23    18   ar
    28    28    24   ar
    29     6     9    1
    30     3     4    1
