@<TRIPOS>MOLECULE
*****
 27 29 0 0 0
SMALL
GASTEIGER

@<TRIPOS>ATOM
      1 C          62.2976   88.8891   10.4400 C.ar    1  UNL1       -0.0000
      2 C          62.5730   90.2916    9.9846 C.ar    1  UNL1        0.0031
      3 C          63.2680   91.2547   10.9007 C.ar    1  UNL1        0.0366
      4 C          63.6876   90.8155   12.2723 C.ar    1  UNL1        0.1346
      5 C          63.4122   89.4130   12.7277 C.ar    1  UNL1        0.0115
      6 C          62.7172   88.4499   11.8115 C.ar    1  UNL1       -0.0013
      7 C          62.4427   84.7095    7.3562 C.3     1  UNL1        0.0521
      8 C          61.6752   85.8362    7.9819 C.ar    1  UNL1        0.0594
      9 C          62.3701   86.7993    8.8981 C.ar    1  UNL1        0.0147
     10 C          61.6026   87.9260    9.5238 C.ar    1  UNL1        0.0027
     11 C          60.1401   88.0895    9.2334 C.ar    1  UNL1        0.0207
     12 C          59.4452   87.1263    8.3173 C.ar    1  UNL1        0.0984
     13 N          60.2127   85.9997    7.6915 N.ar    1  UNL1       -0.2481
     14 C          63.8317   88.9738   14.0991 C.3     1  UNL1        0.0253
     15 C          64.5074   87.9776   14.9941 C.3     1  UNL1        0.0048
     16 C          63.8827   89.2091   15.5797 C.3     1  UNL1        0.0048
     17 O          64.3826   91.7786   13.1884 O.3     1  UNL1       -0.4744
     18 C          65.5074   92.6261   12.6721 C.3     1  UNL1        0.2192
     19 C          66.9218   92.1364   12.7708 C.3     1  UNL1        0.0798
     20 C          67.1969   92.6528   11.3896 C.3     1  UNL1        0.0193
     21 N          68.3362   91.6468   12.8694 N.3     1  UNL1       -0.3203
     22 H          68.8332   91.8668   12.0063 H       1  UNL1        0.1189
     23 H          68.3372   90.6371   13.0143 H       1  UNL1        0.1189
     24 C          66.6467   91.6201   14.1520 C.3     1  UNL1        0.0179
     25 C          66.7135   92.5497   15.3273 C.3     1  UNL1        0.0014
     26 C          67.8592   93.5086   15.4610 C.3     1  UNL1        0.0000
     27 C          65.6346   92.5204   16.3690 C.3     1  UNL1        0.0000
@<TRIPOS>BOND
     1     7     8    1
     2     8     9   ar
     3     9    10   ar
     4    10     1    1
     5     1     2   ar
     6     2     3   ar
     7     3     4   ar
     8     4    17    1
     9    17    18    1
    10    18    19    1
    11    19    20    1
    12    19    21    1
    13    19    24    1
    14    24    25    1
    15    25    26    1
    16    25    27    1
    17     4     5   ar
    18     5    14    1
    19    14    15    1
    20    15    16    1
    21     5     6   ar
    22    10    11   ar
    23    11    12   ar
    24    12    13   ar
    25    13     8   ar
    26     6     1   ar
    27    16    14    1
    28    21    22    1
    29    21    23    1
@<TRIPOS>MOLECULE
*****
 27 29 0 0 0
SMALL
GASTEIGER

@<TRIPOS>ATOM
      1 C          62.2841   88.9871   10.3363 C.ar    1  UNL1       -0.0000
      2 C          62.6035   90.3460    9.7874 C.ar    1  UNL1        0.0031
      3 C          63.3221   91.3494   10.6399 C.ar    1  UNL1        0.0366
      4 C          63.7214   90.9939   12.0415 C.ar    1  UNL1        0.1346
      5 C          63.4020   89.6350   12.5904 C.ar    1  UNL1        0.0115
      6 C          62.6834   88.6316   11.7378 C.ar    1  UNL1       -0.0013
      7 C          62.3688   84.7310    7.3567 C.3     1  UNL1        0.0521
      8 C          61.6078   85.8557    7.9940 C.ar    1  UNL1        0.0594
      9 C          62.3264   86.8590    8.8465 C.ar    1  UNL1        0.0147
     10 C          61.5655   87.9837    9.4838 C.ar    1  UNL1        0.0027
     11 C          60.0860   88.1051    9.2684 C.ar    1  UNL1        0.0207
     12 C          59.3675   87.1017    8.4159 C.ar    1  UNL1        0.0984
     13 N          60.1284   85.9770    7.7786 N.ar    1  UNL1       -0.2481
     14 C          63.8013   89.2794   13.9919 C.3     1  UNL1        0.0253
     15 C          64.4940   88.3573   14.9509 C.3     1  UNL1        0.0048
     16 C          63.8000   89.5857   15.4603 C.3     1  UNL1        0.0048
     17 O          64.4400   91.9972   12.8940 O.3     1  UNL1       -0.4744
     18 C          65.4864   92.8844   12.2874 C.3     1  UNL1        0.2192
     19 C          66.9134   92.4265   12.2246 C.3     1  UNL1        0.0798
     20 C          67.0385   92.6131   13.7077 C.3     1  UNL1        0.0193
     21 N          68.3404   91.9686   12.1620 N.3     1  UNL1       -0.3203
     22 H          68.7440   91.9844   13.0986 H       1  UNL1        0.1189
     23 H          68.8708   92.5912   11.5525 H       1  UNL1        0.1189
     24 C          66.7883   92.2399   10.7416 C.3     1  UNL1        0.0179
     25 C          67.5860   93.1007    9.8074 C.3     1  UNL1        0.0014
     26 C          67.3623   94.5836    9.7785 C.3     1  UNL1        0.0000
     27 C          68.6074   92.4785    8.9021 C.3     1  UNL1        0.0000
@<TRIPOS>BOND
     1     7     8    1
     2     8     9   ar
     3     9    10   ar
     4    10     1    1
     5     1     2   ar
     6     2     3   ar
     7     3     4   ar
     8     4    17    1
     9    17    18    1
    10    18    19    1
    11    19    20    1
    12    19    21    1
    13    19    24    1
    14    24    25    1
    15    25    26    1
    16    25    27    1
    17     4     5   ar
    18     5    14    1
    19    14    15    1
    20    15    16    1
    21     5     6   ar
    22    10    11   ar
    23    11    12   ar
    24    12    13   ar
    25    13     8   ar
    26     6     1   ar
    27    16    14    1
    28    21    22    1
    29    21    23    1
@<TRIPOS>MOLECULE
*****
 27 29 0 0 0
SMALL
GASTEIGER

@<TRIPOS>ATOM
      1 C          63.8585   87.1976   13.7377 C.ar    1  UNL1       -0.0000
      2 C          64.5156   87.9798   14.8361 C.ar    1  UNL1        0.0031
      3 C          64.6265   89.4720   14.7312 C.ar    1  UNL1        0.0366
      4 C          64.0804   90.1820   13.5280 C.ar    1  UNL1        0.1346
      5 C          63.4233   89.3998   12.4296 C.ar    1  UNL1        0.0115
      6 C          63.3123   87.9075   12.5346 C.ar    1  UNL1       -0.0013
      7 C          62.6815   82.6112   11.5977 C.3     1  UNL1        0.0521
      8 C          63.1590   83.4122   12.7726 C.ar    1  UNL1        0.0594
      9 C          63.2700   84.9044   12.6677 C.ar    1  UNL1        0.0147
     10 C          63.7475   85.7053   13.8426 C.ar    1  UNL1        0.0027
     11 C          64.1140   85.0141   15.1224 C.ar    1  UNL1        0.0207
     12 C          64.0031   83.5220   15.2273 C.ar    1  UNL1        0.0984
     13 N          63.5256   82.7210   14.0524 N.ar    1  UNL1       -0.2481
     14 C          62.8772   90.1097   11.2265 C.3     1  UNL1        0.0253
     15 C          61.7549   90.3575   10.2626 C.3     1  UNL1        0.0048
     16 C          63.0536   91.0917   10.1063 C.3     1  UNL1        0.0048
     17 O          64.1914   91.6742   13.4231 O.3     1  UNL1       -0.4744
     18 C          65.4356   92.3686   13.8920 C.3     1  UNL1        0.2192
     19 C          66.7132   92.2208   13.1201 C.3     1  UNL1        0.0798
     20 C          67.4366   91.8663   14.3854 C.3     1  UNL1        0.0193
     21 N          67.9909   92.0729   12.3482 N.3     1  UNL1       -0.3203
     22 H          68.7442   91.8121   12.9845 H       1  UNL1        0.1189
     23 H          68.2191   92.9581   11.8957 H       1  UNL1        0.1189
     24 C          65.9897   92.5753   11.8549 C.3     1  UNL1        0.0179
     25 C          66.3923   93.7928   11.0766 C.3     1  UNL1        0.0014
     26 C          66.9439   93.6477    9.6893 C.3     1  UNL1        0.0000
     27 C          66.2434   95.1554   11.6858 C.3     1  UNL1        0.0000
@<TRIPOS>BOND
     1     7     8    1
     2     8     9   ar
     3     9    10   ar
     4    10     1    1
     5     1     2   ar
     6     2     3   ar
     7     3     4   ar
     8     4    17    1
     9    17    18    1
    10    18    19    1
    11    19    20    1
    12    19    21    1
    13    19    24    1
    14    24    25    1
    15    25    26    1
    16    25    27    1
    17     4     5   ar
    18     5    14    1
    19    14    15    1
    20    15    16    1
    21     5     6   ar
    22    10    11   ar
    23    11    12   ar
    24    12    13   ar
    25    13     8   ar
    26     6     1   ar
    27    16    14    1
    28    21    22    1
    29    21    23    1
@<TRIPOS>MOLECULE
*****
 27 29 0 0 0
SMALL
GASTEIGER

@<TRIPOS>ATOM
      1 C          64.5178   89.8017   14.5613 C.ar    1  UNL1       -0.0000
      2 C          63.7725   90.3186   13.3667 C.ar    1  UNL1        0.0031
      3 C          64.2239   91.5780   12.6883 C.ar    1  UNL1        0.0366
      4 C          65.4207   92.3204   13.2046 C.ar    1  UNL1        0.1346
      5 C          66.1661   91.8035   14.3992 C.ar    1  UNL1        0.0115
      6 C          65.7146   90.5441   15.0776 C.ar    1  UNL1       -0.0013
      7 C          64.3472   84.6123   14.7641 C.3     1  UNL1        0.0521
      8 C          63.9810   85.9476   15.3410 C.ar    1  UNL1        0.0594
      9 C          64.4325   87.2070   14.6627 C.ar    1  UNL1        0.0147
     10 C          64.0664   88.5423   15.2397 C.ar    1  UNL1        0.0027
     11 C          63.2488   88.6182   16.4950 C.ar    1  UNL1        0.0207
     12 C          62.7974   87.3589   17.1733 C.ar    1  UNL1        0.0984
     13 N          63.1635   86.0235   16.5963 N.ar    1  UNL1       -0.2481
     14 C          67.3628   92.5459   14.9155 C.3     1  UNL1        0.0253
     15 C          67.9491   93.6387   15.7593 C.3     1  UNL1        0.0048
     16 C          68.8495   92.7389   14.9659 C.3     1  UNL1        0.0048
     17 O          65.8722   93.5798   12.5262 O.3     1  UNL1       -0.4744
     18 C          65.6561   93.7566   11.0524 C.3     1  UNL1        0.2192
     19 C          66.6394   94.5456   10.2396 C.3     1  UNL1        0.0798
     20 C          66.3740   95.7524   11.0899 C.3     1  UNL1        0.0193
     21 N          67.6228   95.3346    9.4268 N.3     1  UNL1       -0.3203
     22 H          67.6754   96.2871    9.7877 H       1  UNL1        0.1189
     23 H          67.3193   95.3562    8.4532 H       1  UNL1        0.1189
     24 C          66.9049   93.3387    9.3893 C.3     1  UNL1        0.0179
     25 C          68.1103   92.4858    9.6531 C.3     1  UNL1        0.0014
     26 C          69.0485   92.1462    8.5331 C.3     1  UNL1        0.0000
     27 C          68.3776   91.9726   11.0370 C.3     1  UNL1        0.0000
@<TRIPOS>BOND
     1     7     8    1
     2     8     9   ar
     3     9    10   ar
     4    10     1    1
     5     1     2   ar
     6     2     3   ar
     7     3     4   ar
     8     4    17    1
     9    17    18    1
    10    18    19    1
    11    19    20    1
    12    19    21    1
    13    19    24    1
    14    24    25    1
    15    25    26    1
    16    25    27    1
    17     4     5   ar
    18     5    14    1
    19    14    15    1
    20    15    16    1
    21     5     6   ar
    22    10    11   ar
    23    11    12   ar
    24    12    13   ar
    25    13     8   ar
    26     6     1   ar
    27    16    14    1
    28    21    22    1
    29    21    23    1
@<TRIPOS>MOLECULE
*****
 27 29 0 0 0
SMALL
GASTEIGER

@<TRIPOS>ATOM
      1 C          63.3877   85.6734   12.7521 C.ar    1  UNL1       -0.0000
      2 C          64.0579   86.1093   14.0212 C.ar    1  UNL1        0.0031
      3 C          64.2108   87.5702   14.3251 C.ar    1  UNL1        0.0366
      4 C          63.6936   88.5953   13.3597 C.ar    1  UNL1        0.1346
      5 C          63.0234   88.1593   12.0906 C.ar    1  UNL1        0.0115
      6 C          62.8704   86.6983   11.7867 C.ar    1  UNL1       -0.0013
      7 C          61.5834   80.9740   14.0406 C.3     1  UNL1        0.0521
      8 C          62.3326   81.8627   13.0925 C.ar    1  UNL1        0.0594
      9 C          62.4855   83.3236   13.3963 C.ar    1  UNL1        0.0147
     10 C          63.2347   84.2124   12.4482 C.ar    1  UNL1        0.0027
     11 C          63.8310   83.6403   11.1964 C.ar    1  UNL1        0.0207
     12 C          63.6780   82.1794   10.8927 C.ar    1  UNL1        0.0984
     13 N          62.9288   81.2906   11.8407 N.ar    1  UNL1       -0.2481
     14 C          62.5061   89.1843   11.1253 C.3     1  UNL1        0.0253
     15 C          61.4659   89.6356   10.1433 C.3     1  UNL1        0.0048
     16 C          62.6504   90.5083   10.4352 C.3     1  UNL1        0.0048
     17 O          63.8465   90.0561   13.6636 O.3     1  UNL1       -0.4744
     18 C          65.0975   90.5584   14.3213 C.3     1  UNL1        0.2192
     19 C          65.0212   91.6628   15.3335 C.3     1  UNL1        0.0798
     20 C          64.0157   90.8738   16.1185 C.3     1  UNL1        0.0193
     21 N          64.9449   92.7671   16.3458 N.3     1  UNL1       -0.3203
     22 H          64.2829   92.5116   17.0785 H       1  UNL1        0.1189
     23 H          64.6334   93.6250   15.8903 H       1  UNL1        0.1189
     24 C          66.0268   92.4518   14.5485 C.3     1  UNL1        0.0179
     25 C          67.4855   92.1161   14.6465 C.3     1  UNL1        0.0014
     26 C          68.1623   92.0967   15.9850 C.3     1  UNL1        0.0000
     27 C          68.2673   91.8000   13.4060 C.3     1  UNL1        0.0000
@<TRIPOS>BOND
     1     7     8    1
     2     8     9   ar
     3     9    10   ar
     4    10     1    1
     5     1     2   ar
     6     2     3   ar
     7     3     4   ar
     8     4    17    1
     9    17    18    1
    10    18    19    1
    11    19    20    1
    12    19    21    1
    13    19    24    1
    14    24    25    1
    15    25    26    1
    16    25    27    1
    17     4     5   ar
    18     5    14    1
    19    14    15    1
    20    15    16    1
    21     5     6   ar
    22    10    11   ar
    23    11    12   ar
    24    12    13   ar
    25    13     8   ar
    26     6     1   ar
    27    16    14    1
    28    21    22    1
    29    21    23    1
@<TRIPOS>MOLECULE
*****
 27 29 0 0 0
SMALL
GASTEIGER

@<TRIPOS>ATOM
      1 C          63.4475   86.0524   13.2826 C.ar    1  UNL1       -0.0000
      2 C          64.1866   86.6283   14.4540 C.ar    1  UNL1        0.0031
      3 C          64.4059   88.1092   14.5479 C.ar    1  UNL1        0.0366
      4 C          63.8860   89.0142   13.4706 C.ar    1  UNL1        0.1346
      5 C          63.1469   88.4383   12.2992 C.ar    1  UNL1        0.0115
      6 C          62.9276   86.9573   12.2053 C.ar    1  UNL1       -0.0013
      7 C          63.4620   81.6693   10.4918 C.3     1  UNL1        0.0521
      8 C          63.2355   82.3799   11.7933 C.ar    1  UNL1        0.0594
      9 C          63.4547   83.8608   11.8873 C.ar    1  UNL1        0.0147
     10 C          63.2282   84.5714   13.1887 C.ar    1  UNL1        0.0027
     11 C          62.7825   83.8011   14.3961 C.ar    1  UNL1        0.0207
     12 C          62.5632   82.3203   14.3021 C.ar    1  UNL1        0.0984
     13 N          62.7898   81.6096   13.0007 N.ar    1  UNL1       -0.2481
     14 C          62.6270   89.3433   11.2219 C.3     1  UNL1        0.0253
     15 C          61.4801   89.8817   10.4190 C.3     1  UNL1        0.0048
     16 C          62.8735   90.3723   10.1587 C.3     1  UNL1        0.0048
     17 O          64.1053   90.4951   13.5645 O.3     1  UNL1       -0.4744
     18 C          65.3799   91.0290   14.1478 C.3     1  UNL1        0.2192
     19 C          66.2662   91.9175   13.3263 C.3     1  UNL1        0.0798
     20 C          65.1127   92.2301   12.4199 C.3     1  UNL1        0.0193
     21 N          67.1526   92.8061   12.5047 N.3     1  UNL1       -0.3203
     22 H          66.6139   93.2079   11.7374 H       1  UNL1        0.1189
     23 H          67.9263   92.2591   12.1271 H       1  UNL1        0.1189
     24 C          67.4198   91.6049   14.2327 C.3     1  UNL1        0.0179
     25 C          67.7449   92.5202   15.3758 C.3     1  UNL1        0.0014
     26 C          66.6964   92.8454   16.3978 C.3     1  UNL1        0.0000
     27 C          69.1187   93.1102   15.4967 C.3     1  UNL1        0.0000
@<TRIPOS>BOND
     1     7     8    1
     2     8     9   ar
     3     9    10   ar
     4    10     1    1
     5     1     2   ar
     6     2     3   ar
     7     3     4   ar
     8     4    17    1
     9    17    18    1
    10    18    19    1
    11    19    20    1
    12    19    21    1
    13    19    24    1
    14    24    25    1
    15    25    26    1
    16    25    27    1
    17     4     5   ar
    18     5    14    1
    19    14    15    1
    20    15    16    1
    21     5     6   ar
    22    10    11   ar
    23    11    12   ar
    24    12    13   ar
    25    13     8   ar
    26     6     1   ar
    27    16    14    1
    28    21    22    1
    29    21    23    1
@<TRIPOS>MOLECULE
*****
 27 29 0 0 0
SMALL
GASTEIGER

@<TRIPOS>ATOM
      1 C          64.7688   92.0039   10.9795 C.ar    1  UNL1       -0.0000
      2 C          63.6011   91.7689   10.0676 C.ar    1  UNL1        0.0031
      3 C          62.5159   90.8147   10.4695 C.ar    1  UNL1        0.0366
      4 C          62.5981   90.0954   11.7833 C.ar    1  UNL1        0.1346
      5 C          63.7657   90.3304   12.6951 C.ar    1  UNL1        0.0115
      6 C          64.8511   91.2847   12.2932 C.ar    1  UNL1       -0.0013
      7 C          66.6014   96.8551   10.6517 C.3     1  UNL1        0.0521
      8 C          66.7704   95.3838   10.4136 C.ar    1  UNL1        0.0594
      9 C          65.6851   94.4295   10.8155 C.ar    1  UNL1        0.0147
     10 C          65.8541   92.9582   10.5775 C.ar    1  UNL1        0.0027
     11 C          67.1083   92.4411    9.9376 C.ar    1  UNL1        0.0207
     12 C          68.1935   93.3954    9.5357 C.ar    1  UNL1        0.0984
     13 N          68.0246   94.8667    9.7737 N.ar    1  UNL1       -0.2481
     14 C          63.8481   89.6112   14.0088 C.3     1  UNL1        0.0253
     15 C          63.5839   89.5676   15.4847 C.3     1  UNL1        0.0048
     16 C          64.2548   88.4090   14.8084 C.3     1  UNL1        0.0048
     17 O          61.5128   89.1412   12.1852 O.3     1  UNL1       -0.4744
     18 C          60.6465   88.5065   11.1379 C.3     1  UNL1        0.2192
     19 C          61.2524   87.5862   10.1202 C.3     1  UNL1        0.0798
     20 C          61.6519   86.6401   11.2135 C.3     1  UNL1        0.0193
     21 N          61.8584   86.6659    9.1024 N.3     1  UNL1       -0.3203
     22 H          62.2518   85.8507    9.5726 H       1  UNL1        0.1189
     23 H          62.5965   87.1562    8.5973 H       1  UNL1        0.1189
     24 C          60.8530   88.5323    9.0269 C.3     1  UNL1        0.0179
     25 C          59.7409   88.1676    8.0886 C.3     1  UNL1        0.0014
     26 C          59.3538   89.1055    6.9838 C.3     1  UNL1        0.0000
     27 C          59.0159   86.8650    8.2551 C.3     1  UNL1        0.0000
@<TRIPOS>BOND
     1     7     8    1
     2     8     9   ar
     3     9    10   ar
     4    10     1    1
     5     1     2   ar
     6     2     3   ar
     7     3     4   ar
     8     4    17    1
     9    17    18    1
    10    18    19    1
    11    19    20    1
    12    19    21    1
    13    19    24    1
    14    24    25    1
    15    25    26    1
    16    25    27    1
    17     4     5   ar
    18     5    14    1
    19    14    15    1
    20    15    16    1
    21     5     6   ar
    22    10    11   ar
    23    11    12   ar
    24    12    13   ar
    25    13     8   ar
    26     6     1   ar
    27    16    14    1
    28    21    22    1
    29    21    23    1
@<TRIPOS>MOLECULE
*****
 27 29 0 0 0
SMALL
GASTEIGER

@<TRIPOS>ATOM
      1 C          64.4118   90.2302   13.1993 C.ar    1  UNL1       -0.0000
      2 C          63.4733   90.1717   12.0307 C.ar    1  UNL1        0.0031
      3 C          62.7555   88.8946   11.7084 C.ar    1  UNL1        0.0366
      4 C          62.9762   87.6760   12.5549 C.ar    1  UNL1        0.1346
      5 C          63.9147   87.7346   13.7236 C.ar    1  UNL1        0.0115
      6 C          64.6325   89.0118   14.0458 C.ar    1  UNL1       -0.0013
      7 C          66.3082   94.8288   11.6969 C.3     1  UNL1        0.0521
      8 C          66.0777   93.8066   12.7703 C.ar    1  UNL1        0.0594
      9 C          65.3600   92.5295   12.4481 C.ar    1  UNL1        0.0147
     10 C          65.1296   91.5074   13.5215 C.ar    1  UNL1        0.0027
     11 C          65.6169   91.7624   14.9170 C.ar    1  UNL1        0.0207
     12 C          66.3346   93.0395   15.2392 C.ar    1  UNL1        0.0984
     13 N          66.5650   94.0616   14.1658 N.ar    1  UNL1       -0.2481
     14 C          64.1354   86.5161   14.5701 C.3     1  UNL1        0.0253
     15 C          64.8183   85.2006   14.8003 C.3     1  UNL1        0.0048
     16 C          63.8347   85.7212   15.8060 C.3     1  UNL1        0.0048
     17 O          62.2584   86.3990   12.2327 O.3     1  UNL1       -0.4744
     18 C          61.9043   86.0757   10.8114 C.3     1  UNL1        0.2192
     19 C          62.7239   85.0830   10.0415 C.3     1  UNL1        0.0798
     20 C          62.8474   84.2318   11.2704 C.3     1  UNL1        0.0193
     21 N          63.5435   84.0902    9.2716 N.3     1  UNL1       -0.3203
     22 H          63.8084   83.3195    9.8850 H       1  UNL1        0.1189
     23 H          64.3839   84.5460    8.9160 H       1  UNL1        0.1189
     24 C          62.6004   85.9341    8.8126 C.3     1  UNL1        0.0179
     25 C          61.5988   85.5811    7.7532 C.3     1  UNL1        0.0014
     26 C          62.0093   84.7339    6.5855 C.3     1  UNL1        0.0000
     27 C          60.1867   86.0753    7.8617 C.3     1  UNL1        0.0000
@<TRIPOS>BOND
     1     7     8    1
     2     8     9   ar
     3     9    10   ar
     4    10     1    1
     5     1     2   ar
     6     2     3   ar
     7     3     4   ar
     8     4    17    1
     9    17    18    1
    10    18    19    1
    11    19    20    1
    12    19    21    1
    13    19    24    1
    14    24    25    1
    15    25    26    1
    16    25    27    1
    17     4     5   ar
    18     5    14    1
    19    14    15    1
    20    15    16    1
    21     5     6   ar
    22    10    11   ar
    23    11    12   ar
    24    12    13   ar
    25    13     8   ar
    26     6     1   ar
    27    16    14    1
    28    21    22    1
    29    21    23    1
@<TRIPOS>MOLECULE
*****
 27 29 0 0 0
SMALL
GASTEIGER

@<TRIPOS>ATOM
      1 C          63.1143   83.7971   12.7900 C.ar    1  UNL1       -0.0000
      2 C          63.8552   84.3271   13.9817 C.ar    1  UNL1        0.0031
      3 C          64.0649   85.8040   14.1385 C.ar    1  UNL1        0.0366
      4 C          63.5336   86.7510   13.1035 C.ar    1  UNL1        0.1346
      5 C          62.7927   86.2210   11.9118 C.ar    1  UNL1        0.0115
      6 C          62.5831   84.7440   11.7551 C.ar    1  UNL1       -0.0013
      7 C          62.9830   79.5653    9.7775 C.3     1  UNL1        0.0521
      8 C          62.8390   80.2042   11.1270 C.ar    1  UNL1        0.0594
      9 C          63.0486   81.6811   11.2838 C.ar    1  UNL1        0.0147
     10 C          62.9047   82.3200   12.6332 C.ar    1  UNL1        0.0027
     11 C          62.5511   81.4820   13.8259 C.ar    1  UNL1        0.0207
     12 C          62.3415   80.0050   13.6692 C.ar    1  UNL1        0.0984
     13 N          62.4854   79.3661   12.3197 N.ar    1  UNL1       -0.2481
     14 C          62.2615   87.1679   10.8769 C.3     1  UNL1        0.0253
     15 C          61.3299   87.4578    9.7376 C.3     1  UNL1        0.0048
     16 C          62.2729   88.5182   10.2237 C.3     1  UNL1        0.0048
     17 O          63.7433   88.2280   13.2603 O.3     1  UNL1       -0.4744
     18 C          64.2423   88.7806   14.5624 C.3     1  UNL1        0.2192
     19 C          63.8703   90.1731   14.9780 C.3     1  UNL1        0.0798
     20 C          63.3473   89.6445   16.2807 C.3     1  UNL1        0.0193
     21 N          63.4982   91.5655   15.3936 N.3     1  UNL1       -0.3203
     22 H          63.0786   91.5423   16.3230 H       1  UNL1        0.1189
     23 H          62.8288   91.9517   14.7279 H       1  UNL1        0.1189
     24 C          64.3933   90.7016   13.6753 C.3     1  UNL1        0.0179
     25 C          65.5898   91.6061   13.6590 C.3     1  UNL1        0.0014
     26 C          66.7160   91.3774   14.6230 C.3     1  UNL1        0.0000
     27 C          65.6600   92.7393   12.6788 C.3     1  UNL1        0.0000
@<TRIPOS>BOND
     1     7     8    1
     2     8     9   ar
     3     9    10   ar
     4    10     1    1
     5     1     2   ar
     6     2     3   ar
     7     3     4   ar
     8     4    17    1
     9    17    18    1
    10    18    19    1
    11    19    20    1
    12    19    21    1
    13    19    24    1
    14    24    25    1
    15    25    26    1
    16    25    27    1
    17     4     5   ar
    18     5    14    1
    19    14    15    1
    20    15    16    1
    21     5     6   ar
    22    10    11   ar
    23    11    12   ar
    24    12    13   ar
    25    13     8   ar
    26     6     1   ar
    27    16    14    1
    28    21    22    1
    29    21    23    1
