@<TRIPOS>MOLECULE
*****
 28 31 0 0 0
SMALL
GASTEIGER

@<TRIPOS>ATOM
      1 C          61.4135   88.1419   10.8325 C.2     1  UNL1       -0.0246
      2 C          62.1865   86.9035   11.1768 C.2     1  UNL1       -0.0421
      3 C          61.9495   85.8930   10.0939 C.3     1  UNL1        0.0480
      4 C          61.0300   86.5070    9.0802 C.ar    1  UNL1       -0.0184
      5 C          60.4515   85.9801    7.8005 C.ar    1  UNL1       -0.0040
      6 C          59.5418   86.8430    6.9773 C.ar    1  UNL1       -0.0003
      7 C          59.2106   88.2329    7.4338 C.ar    1  UNL1       -0.0000
      8 C          59.7890   88.7599    8.7135 C.ar    1  UNL1       -0.0006
      9 C          60.6987   87.8969    9.5367 C.ar    1  UNL1       -0.0079
     10 C          60.1015   89.7885   12.3550 C.3     1  UNL1        0.0111
     11 C          61.3639   89.4039   11.6418 C.3     1  UNL1        0.0634
     12 C          62.5766   90.2813   11.7380 C.ar    1  UNL1        0.0818
     13 C          63.0635   91.0233   10.5287 C.ar    1  UNL1        0.1139
     14 N          64.2762   91.9008   10.6250 N.ar    1  UNL1       -0.2394
     15 C          65.0022   92.0363   11.9306 C.ar    1  UNL1        0.1195
     16 C          64.5154   91.2944   13.1400 C.ar    1  UNL1        0.1191
     17 N          63.3026   90.4169   13.0437 N.ar    1  UNL1       -0.2446
     18 C          63.0457   86.7095   12.3910 C.3     1  UNL1        0.0394
     19 C          63.2395   85.3356   12.9609 C.3     1  UNL1        0.0769
     20 N          64.0327   85.1512   14.2206 N.3     1  UNL1       -0.2648
     21 C          64.5515   86.3475   14.9621 C.3     1  UNL1        0.0900
     22 C          64.3071   83.7706   14.7388 C.3     1  UNL1        0.1369
     23 C          63.4929   82.6100   14.2488 C.ar    1  UNL1        0.1335
     24 N          63.8306   81.7244   13.0863 N.ar    1  UNL1       -0.2281
     25 C          62.7445   80.6983   12.9543 C.ar    1  UNL1        0.1186
     26 C          61.7354   80.9497   14.0353 C.ar    1  UNL1        0.0943
     27 N          62.1980   82.1313   14.8353 N.ar    1  UNL1       -0.3385
     28 H          61.7333   82.5236   15.6095 H       1  UNL1        0.1672
@<TRIPOS>BOND
     1    11    10    1
     2    11     1    1
     3     1     2    2
     4     2    18    1
     5    18    19    1
     6    19    20    1
     7    20    21    1
     8    20    22    1
     9    22    23    1
    10    23    24   ar
    11    24    25   ar
    12    25    26   ar
    13    26    27   ar
    14     2     3    1
    15     3     4    1
    16     4     5   ar
    17     5     6   ar
    18     6     7   ar
    19     7     8   ar
    20     8     9   ar
    21    11    12    1
    22    12    13   ar
    23    13    14   ar
    24    14    15   ar
    25    15    16   ar
    26    16    17   ar
    27     9     1    1
    28    17    12   ar
    29    27    23   ar
    30     9     4   ar
    31    27    28    1
@<TRIPOS>MOLECULE
*****
 28 31 0 0 0
SMALL
GASTEIGER

@<TRIPOS>ATOM
      1 C          63.7073   89.0782   13.5274 C.2     1  UNL1       -0.0246
      2 C          63.9374   87.6092   13.7244 C.2     1  UNL1       -0.0421
      3 C          63.3198   86.8838   12.5658 C.3     1  UNL1        0.0480
      4 C          62.7080   87.9045   11.6527 C.ar    1  UNL1       -0.0184
      5 C          61.9638   87.7742   10.3569 C.ar    1  UNL1       -0.0040
      6 C          61.4590   89.0002    9.6554 C.ar    1  UNL1       -0.0003
      7 C          61.6985   90.3565   10.2497 C.ar    1  UNL1       -0.0000
      8 C          62.4427   90.4868   11.5455 C.ar    1  UNL1       -0.0006
      9 C          62.9474   89.2608   12.2470 C.ar    1  UNL1       -0.0079
     10 C          63.5808   90.2755   15.8298 C.3     1  UNL1        0.0111
     11 C          64.1578   90.1727   14.4489 C.3     1  UNL1        0.0634
     12 C          65.1853   91.1642   13.9898 C.ar    1  UNL1        0.0818
     13 C          66.5700   91.1306   14.5655 C.ar    1  UNL1        0.1139
     14 N          67.5975   92.1222   14.1063 N.ar    1  UNL1       -0.2394
     15 C          67.2404   93.1476   13.0714 C.ar    1  UNL1        0.1195
     16 C          65.8556   93.1814   12.4956 C.ar    1  UNL1        0.1191
     17 N          64.8282   92.1897   12.9548 N.ar    1  UNL1       -0.2446
     18 C          64.6585   86.9765   14.8776 C.3     1  UNL1        0.0394
     19 C          64.3004   85.5872   15.3149 C.3     1  UNL1        0.0769
     20 N          62.9660   85.3200   15.9458 N.3     1  UNL1       -0.2648
     21 C          62.5993   85.9895   17.2371 C.3     1  UNL1        0.0900
     22 C          61.9983   84.3833   15.2854 C.3     1  UNL1        0.1369
     23 C          62.5050   83.2777   14.4074 C.ar    1  UNL1        0.1335
     24 N          62.6977   83.3498   12.9215 N.ar    1  UNL1       -0.2281
     25 C          63.2198   82.0226   12.4569 C.ar    1  UNL1        0.1186
     26 C          63.3499   81.1302   13.6555 C.ar    1  UNL1        0.0943
     27 N          62.9081   81.9060   14.8610 N.ar    1  UNL1       -0.3385
     28 H          62.8865   81.5732   15.7873 H       1  UNL1        0.1672
@<TRIPOS>BOND
     1    11    10    1
     2    11     1    1
     3     1     2    2
     4     2    18    1
     5    18    19    1
     6    19    20    1
     7    20    21    1
     8    20    22    1
     9    22    23    1
    10    23    24   ar
    11    24    25   ar
    12    25    26   ar
    13    26    27   ar
    14     2     3    1
    15     3     4    1
    16     4     5   ar
    17     5     6   ar
    18     6     7   ar
    19     7     8   ar
    20     8     9   ar
    21    11    12    1
    22    12    13   ar
    23    13    14   ar
    24    14    15   ar
    25    15    16   ar
    26    16    17   ar
    27     9     1    1
    28    17    12   ar
    29    27    23   ar
    30     9     4   ar
    31    27    28    1
@<TRIPOS>MOLECULE
*****
 28 31 0 0 0
SMALL
GASTEIGER

@<TRIPOS>ATOM
      1 C          62.9552   85.2968   11.9469 C.2     1  UNL1       -0.0246
      2 C          63.4832   86.0324   13.1428 C.2     1  UNL1       -0.0421
      3 C          63.8129   85.0212   14.2005 C.3     1  UNL1        0.0480
      4 C          63.4887   83.6607   13.6584 C.ar    1  UNL1       -0.0184
      5 C          63.6076   82.2888   14.2530 C.ar    1  UNL1       -0.0040
      6 C          63.1965   81.0872   13.4548 C.ar    1  UNL1       -0.0003
      7 C          62.6665   81.2576   12.0620 C.ar    1  UNL1       -0.0000
      8 C          62.5475   82.6295   11.4673 C.ar    1  UNL1       -0.0006
      9 C          62.9586   83.8310   12.2655 C.ar    1  UNL1       -0.0079
     10 C          62.8115   85.2461    9.3532 C.3     1  UNL1        0.0111
     11 C          62.5033   85.9179   10.6585 C.3     1  UNL1        0.0634
     12 C          61.7431   87.2109   10.6753 C.ar    1  UNL1        0.0818
     13 C          62.2248   88.3749    9.8610 C.ar    1  UNL1        0.1139
     14 N          61.4646   89.6678    9.8779 N.ar    1  UNL1       -0.2394
     15 C          60.2226   89.7968   10.7089 C.ar    1  UNL1        0.1195
     16 C          59.7407   88.6328   11.5232 C.ar    1  UNL1        0.1191
     17 N          60.5010   87.3399   11.5064 N.ar    1  UNL1       -0.2446
     18 C          63.6519   87.5182   13.2603 C.3     1  UNL1        0.0394
     19 C          64.2532   88.1090   14.5010 C.3     1  UNL1        0.0769
     20 N          63.6643   89.3509   15.1018 N.3     1  UNL1       -0.2648
     21 C          63.1355   89.3270   16.5054 C.3     1  UNL1        0.0900
     22 C          63.6043   90.6166   14.2992 C.3     1  UNL1        0.1369
     23 C          64.8708   91.3261   13.9216 C.ar    1  UNL1        0.1335
     24 N          65.0162   92.3551   12.8399 N.ar    1  UNL1       -0.2281
     25 C          66.4495   92.7961   12.8092 C.ar    1  UNL1        0.1186
     26 C          67.1901   92.0396   13.8719 C.ar    1  UNL1        0.0943
     27 N          66.2144   91.1311   14.5594 N.ar    1  UNL1       -0.3385
     28 H          66.4198   90.5150   15.2993 H       1  UNL1        0.1672
@<TRIPOS>BOND
     1    11    10    1
     2    11     1    1
     3     1     2    2
     4     2    18    1
     5    18    19    1
     6    19    20    1
     7    20    21    1
     8    20    22    1
     9    22    23    1
    10    23    24   ar
    11    24    25   ar
    12    25    26   ar
    13    26    27   ar
    14     2     3    1
    15     3     4    1
    16     4     5   ar
    17     5     6   ar
    18     6     7   ar
    19     7     8   ar
    20     8     9   ar
    21    11    12    1
    22    12    13   ar
    23    13    14   ar
    24    14    15   ar
    25    15    16   ar
    26    16    17   ar
    27     9     1    1
    28    17    12   ar
    29    27    23   ar
    30     9     4   ar
    31    27    28    1
@<TRIPOS>MOLECULE
*****
 28 31 0 0 0
SMALL
GASTEIGER

@<TRIPOS>ATOM
      1 C          63.2188   90.4672   12.5730 C.2     1  UNL1       -0.0246
      2 C          63.4861   90.2453   14.0322 C.2     1  UNL1       -0.0421
      3 C          64.7040   91.0371   14.4059 C.3     1  UNL1        0.0480
      4 C          65.1894   91.7484   13.1777 C.ar    1  UNL1       -0.0184
      5 C          66.3486   92.6713   12.9445 C.ar    1  UNL1       -0.0040
      6 C          66.5899   93.2419   11.5785 C.ar    1  UNL1       -0.0003
      7 C          65.6719   92.8897   10.4457 C.ar    1  UNL1       -0.0000
      8 C          64.5127   91.9668   10.6789 C.ar    1  UNL1       -0.0006
      9 C          64.2714   91.3962   12.0449 C.ar    1  UNL1       -0.0079
     10 C          60.8524   90.6626   11.5182 C.3     1  UNL1        0.0111
     11 C          62.0959   89.8657   11.7809 C.3     1  UNL1        0.0634
     12 C          62.2163   88.4675   11.2515 C.ar    1  UNL1        0.0818
     13 C          61.9073   88.1814    9.8118 C.ar    1  UNL1        0.1139
     14 N          62.0278   86.7831    9.2824 N.ar    1  UNL1       -0.2394
     15 C          62.4572   85.6709   10.1926 C.ar    1  UNL1        0.1195
     16 C          62.7662   85.9570   11.6324 C.ar    1  UNL1        0.1191
     17 N          62.6457   87.3553   12.1617 N.ar    1  UNL1       -0.2446
     18 C          62.6775   89.3829   14.9555 C.3     1  UNL1        0.0394
     19 C          63.2913   88.8546   16.2181 C.3     1  UNL1        0.0769
     20 N          63.3955   87.3747   16.4392 N.3     1  UNL1       -0.2648
     21 C          62.7202   86.7435   17.6206 C.3     1  UNL1        0.0900
     22 C          64.1749   86.5259   15.4790 C.3     1  UNL1        0.1369
     23 C          63.7191   85.1305   15.1708 C.ar    1  UNL1        0.1335
     24 N          62.2976   84.6867   14.9914 N.ar    1  UNL1       -0.2281
     25 C          62.3047   83.2158   14.6976 C.ar    1  UNL1        0.1186
     26 C          63.7307   82.7504   14.6955 C.ar    1  UNL1        0.0943
     27 N          64.6048   83.9338   14.9880 N.ar    1  UNL1       -0.3385
     28 H          65.5874   83.9264   15.0492 H       1  UNL1        0.1672
@<TRIPOS>BOND
     1    11    10    1
     2    11     1    1
     3     1     2    2
     4     2    18    1
     5    18    19    1
     6    19    20    1
     7    20    21    1
     8    20    22    1
     9    22    23    1
    10    23    24   ar
    11    24    25   ar
    12    25    26   ar
    13    26    27   ar
    14     2     3    1
    15     3     4    1
    16     4     5   ar
    17     5     6   ar
    18     6     7   ar
    19     7     8   ar
    20     8     9   ar
    21    11    12    1
    22    12    13   ar
    23    13    14   ar
    24    14    15   ar
    25    15    16   ar
    26    16    17   ar
    27     9     1    1
    28    17    12   ar
    29    27    23   ar
    30     9     4   ar
    31    27    28    1
@<TRIPOS>MOLECULE
*****
 28 31 0 0 0
SMALL
GASTEIGER

@<TRIPOS>ATOM
      1 C          63.5463   89.1908   12.6216 C.2     1  UNL1       -0.0246
      2 C          63.4020   90.3530   11.6844 C.2     1  UNL1       -0.0421
      3 C          62.6703   89.8768   10.4647 C.3     1  UNL1        0.0480
      4 C          62.3625   88.4202   10.6480 C.ar    1  UNL1       -0.0184
      5 C          61.6591   87.4252    9.7732 C.ar    1  UNL1       -0.0040
      6 C          61.4971   86.0062   10.2316 C.ar    1  UNL1       -0.0003
      7 C          62.0385   85.5822   11.5647 C.ar    1  UNL1       -0.0000
      8 C          62.7418   86.5772   12.4394 C.ar    1  UNL1       -0.0006
      9 C          62.9038   87.9962   11.9811 C.ar    1  UNL1       -0.0079
     10 C          65.2479   90.2638   14.2659 C.3     1  UNL1        0.0111
     11 C          64.2155   89.2182   13.9638 C.3     1  UNL1        0.0634
     12 C          63.8526   88.2002   15.0038 C.ar    1  UNL1        0.0818
     13 C          63.0431   88.6055   16.1998 C.ar    1  UNL1        0.1139
     14 N          62.6802   87.5874   17.2399 N.ar    1  UNL1       -0.2394
     15 C          63.1267   86.1639   17.0840 C.ar    1  UNL1        0.1195
     16 C          63.9361   85.7585   15.8880 C.ar    1  UNL1        0.1191
     17 N          64.2991   86.7766   14.8479 N.ar    1  UNL1       -0.2446
     18 C          63.9016   91.7468   11.9248 C.3     1  UNL1        0.0394
     19 C          64.7431   92.4310   10.8887 C.3     1  UNL1        0.0769
     20 N          66.0973   92.9627   11.2538 N.3     1  UNL1       -0.2648
     21 C          67.2971   92.5837   10.4371 C.3     1  UNL1        0.0900
     22 C          66.2518   93.8734   12.4356 C.3     1  UNL1        0.1369
     23 C          66.8657   93.3588   13.7039 C.ar    1  UNL1        0.1335
     24 N          68.1065   92.5223   13.8067 N.ar    1  UNL1       -0.2281
     25 C          68.3543   92.2369   15.2583 C.ar    1  UNL1        0.1186
     26 C          67.2665   92.8969   16.0526 C.ar    1  UNL1        0.0943
     27 N          66.3465   93.5903   15.0920 N.ar    1  UNL1       -0.3385
     28 H          65.5430   94.1067   15.3306 H       1  UNL1        0.1672
@<TRIPOS>BOND
     1    11    10    1
     2    11     1    1
     3     1     2    2
     4     2    18    1
     5    18    19    1
     6    19    20    1
     7    20    21    1
     8    20    22    1
     9    22    23    1
    10    23    24   ar
    11    24    25   ar
    12    25    26   ar
    13    26    27   ar
    14     2     3    1
    15     3     4    1
    16     4     5   ar
    17     5     6   ar
    18     6     7   ar
    19     7     8   ar
    20     8     9   ar
    21    11    12    1
    22    12    13   ar
    23    13    14   ar
    24    14    15   ar
    25    15    16   ar
    26    16    17   ar
    27     9     1    1
    28    17    12   ar
    29    27    23   ar
    30     9     4   ar
    31    27    28    1
@<TRIPOS>MOLECULE
*****
 28 31 0 0 0
SMALL
GASTEIGER

@<TRIPOS>ATOM
      1 C          63.2447   88.5058   12.3191 C.2     1  UNL1       -0.0246
      2 C          63.9017   89.3365   13.3813 C.2     1  UNL1       -0.0421
      3 C          64.3534   88.4161   14.4762 C.3     1  UNL1        0.0480
      4 C          63.9755   87.0166   14.0907 C.ar    1  UNL1       -0.0184
      5 C          64.1668   85.6989   14.7814 C.ar    1  UNL1       -0.0040
      6 C          63.6729   84.4367   14.1389 C.ar    1  UNL1       -0.0003
      7 C          62.9877   84.4922   12.8057 C.ar    1  UNL1       -0.0000
      8 C          62.7964   85.8099   12.1150 C.ar    1  UNL1       -0.0006
      9 C          63.2903   87.0721   12.7575 C.ar    1  UNL1       -0.0079
     10 C          62.8775   90.4410   10.6248 C.3     1  UNL1        0.0111
     11 C          62.6470   89.0189   11.0426 C.3     1  UNL1        0.0634
     12 C          61.8187   88.1099   10.1837 C.ar    1  UNL1        0.0818
     13 C          60.3228   88.2192   10.2007 C.ar    1  UNL1        0.1139
     14 N          59.4946   87.3102    9.3418 N.ar    1  UNL1       -0.2394
     15 C          60.1622   86.2918    8.4659 C.ar    1  UNL1        0.1195
     16 C          61.6582   86.1824    8.4489 C.ar    1  UNL1        0.1191
     17 N          62.4864   87.0915    9.3078 N.ar    1  UNL1       -0.2446
     18 C          64.0764   90.8261   13.3535 C.3     1  UNL1        0.0394
     19 C          65.3865   91.4352   13.7566 C.3     1  UNL1        0.0769
     20 N          65.7949   92.7689   13.2048 N.3     1  UNL1       -0.2648
     21 C          66.5508   93.7371   14.0658 C.3     1  UNL1        0.0900
     22 C          65.4474   93.1344   11.7922 C.3     1  UNL1        0.1369
     23 C          66.5224   93.1989   10.7481 C.ar    1  UNL1        0.1335
     24 N          67.7796   92.3811   10.7253 N.ar    1  UNL1       -0.2281
     25 C          68.5631   92.7693    9.5065 C.ar    1  UNL1        0.1186
     26 C          67.7901   93.8271    8.7760 C.ar    1  UNL1        0.0943
     27 N          66.5289   94.0926    9.5434 N.ar    1  UNL1       -0.3385
     28 H          65.8284   94.7398    9.2992 H       1  UNL1        0.1672
@<TRIPOS>BOND
     1    11    10    1
     2    11     1    1
     3     1     2    2
     4     2    18    1
     5    18    19    1
     6    19    20    1
     7    20    21    1
     8    20    22    1
     9    22    23    1
    10    23    24   ar
    11    24    25   ar
    12    25    26   ar
    13    26    27   ar
    14     2     3    1
    15     3     4    1
    16     4     5   ar
    17     5     6   ar
    18     6     7   ar
    19     7     8   ar
    20     8     9   ar
    21    11    12    1
    22    12    13   ar
    23    13    14   ar
    24    14    15   ar
    25    15    16   ar
    26    16    17   ar
    27     9     1    1
    28    17    12   ar
    29    27    23   ar
    30     9     4   ar
    31    27    28    1
@<TRIPOS>MOLECULE
*****
 28 31 0 0 0
SMALL
GASTEIGER

@<TRIPOS>ATOM
      1 C          64.6929   91.7127   12.4349 C.2     1  UNL1       -0.0246
      2 C          63.8267   90.6549   13.0519 C.2     1  UNL1       -0.0421
      3 C          64.1775   90.5592   14.5071 C.3     1  UNL1        0.0480
      4 C          65.2606   91.5579   14.7895 C.ar    1  UNL1       -0.0184
      5 C          65.9979   91.9101   16.0474 C.ar    1  UNL1       -0.0040
      6 C          67.0537   92.9753   16.0245 C.ar    1  UNL1       -0.0003
      7 C          67.3722   93.6882   14.7438 C.ar    1  UNL1       -0.0000
      8 C          66.6350   93.3359   13.4859 C.ar    1  UNL1       -0.0006
      9 C          65.5791   92.2708   13.5088 C.ar    1  UNL1       -0.0079
     10 C          63.5919   91.6484   10.0824 C.3     1  UNL1        0.0111
     11 C          64.6760   92.1378   10.9965 C.3     1  UNL1        0.0634
     12 C          65.7430   93.0523   10.4720 C.ar    1  UNL1        0.0818
     13 C          67.0727   92.4943   10.0591 C.ar    1  UNL1        0.1139
     14 N          68.1397   93.4088    9.5346 N.ar    1  UNL1       -0.2394
     15 C          67.8771   94.8814    9.4231 C.ar    1  UNL1        0.1195
     16 C          66.5474   95.4395    9.8360 C.ar    1  UNL1        0.1191
     17 N          65.4804   94.5250   10.3605 N.ar    1  UNL1       -0.2446
     18 C          62.7914   89.8365   12.3388 C.3     1  UNL1        0.0394
     19 C          63.0294   88.3764   12.0915 C.3     1  UNL1        0.0769
     20 N          61.9406   87.5279   11.5045 N.3     1  UNL1       -0.2648
     21 C          62.1821   86.0699   11.2472 C.3     1  UNL1        0.0900
     22 C          60.6102   88.1373   11.1747 C.3     1  UNL1        0.1369
     23 C          60.1645   88.2372    9.7460 C.ar    1  UNL1        0.1335
     24 N          59.5247   87.1433    8.9434 N.ar    1  UNL1       -0.2281
     25 C          59.2451   87.6785    7.5704 C.ar    1  UNL1        0.1186
     26 C          59.7119   89.1032    7.5243 C.ar    1  UNL1        0.0943
     27 N          60.2801   89.4485    8.8689 N.ar    1  UNL1       -0.3385
     28 H          60.6620   90.3176    9.1299 H       1  UNL1        0.1672
@<TRIPOS>BOND
     1    11    10    1
     2    11     1    1
     3     1     2    2
     4     2    18    1
     5    18    19    1
     6    19    20    1
     7    20    21    1
     8    20    22    1
     9    22    23    1
    10    23    24   ar
    11    24    25   ar
    12    25    26   ar
    13    26    27   ar
    14     2     3    1
    15     3     4    1
    16     4     5   ar
    17     5     6   ar
    18     6     7   ar
    19     7     8   ar
    20     8     9   ar
    21    11    12    1
    22    12    13   ar
    23    13    14   ar
    24    14    15   ar
    25    15    16   ar
    26    16    17   ar
    27     9     1    1
    28    17    12   ar
    29    27    23   ar
    30     9     4   ar
    31    27    28    1
@<TRIPOS>MOLECULE
*****
 28 31 0 0 0
SMALL
GASTEIGER

@<TRIPOS>ATOM
      1 C          63.5245   87.0979   13.0836 C.2     1  UNL1       -0.0246
      2 C          63.6899   88.5768   13.2718 C.2     1  UNL1       -0.0421
      3 C          63.0211   89.2681   12.1208 C.3     1  UNL1        0.0480
      4 C          62.4423   88.2165   11.2213 C.ar    1  UNL1       -0.0184
      5 C          61.6722   88.3070    9.9373 C.ar    1  UNL1       -0.0040
      6 C          61.2132   87.0562    9.2484 C.ar    1  UNL1       -0.0003
      7 C          61.5243   85.7149    9.8434 C.ar    1  UNL1       -0.0000
      8 C          62.2944   85.6244   11.1274 C.ar    1  UNL1       -0.0006
      9 C          62.7534   86.8752   11.8164 C.ar    1  UNL1       -0.0079
     10 C          64.9444   86.3919   15.1417 C.3     1  UNL1        0.0111
     11 C          64.0396   86.0292   14.0015 C.3     1  UNL1        0.0634
     12 C          63.6500   84.5979   13.7794 C.ar    1  UNL1        0.0818
     13 C          62.4658   84.0226   14.4982 C.ar    1  UNL1        0.1139
     14 N          62.0763   82.5912   14.2760 N.ar    1  UNL1       -0.2394
     15 C          62.8710   81.7350   13.3351 C.ar    1  UNL1        0.1195
     16 C          64.0553   82.3102   12.6163 C.ar    1  UNL1        0.1191
     17 N          64.4448   83.7416   12.8385 N.ar    1  UNL1       -0.2446
     18 C          64.3996   89.2467   14.4109 C.3     1  UNL1        0.0394
     19 C          63.9735   90.6128   14.8606 C.3     1  UNL1        0.0769
     20 N          65.0013   91.6104   15.3059 N.3     1  UNL1       -0.2648
     21 C          64.8336   92.3275   16.6127 C.3     1  UNL1        0.0900
     22 C          66.1969   91.8908   14.4445 C.3     1  UNL1        0.1369
     23 C          66.0346   92.6472   13.1595 C.ar    1  UNL1        0.1335
     24 N          66.5509   94.0270   12.8773 N.ar    1  UNL1       -0.2281
     25 C          66.1629   94.3893   11.4744 C.ar    1  UNL1        0.1186
     26 C          65.4067   93.2334   10.8894 C.ar    1  UNL1        0.0943
     27 N          65.3274   92.1567   11.9309 N.ar    1  UNL1       -0.3385
     28 H          64.8883   91.2818   11.8264 H       1  UNL1        0.1672
@<TRIPOS>BOND
     1    11    10    1
     2    11     1    1
     3     1     2    2
     4     2    18    1
     5    18    19    1
     6    19    20    1
     7    20    21    1
     8    20    22    1
     9    22    23    1
    10    23    24   ar
    11    24    25   ar
    12    25    26   ar
    13    26    27   ar
    14     2     3    1
    15     3     4    1
    16     4     5   ar
    17     5     6   ar
    18     6     7   ar
    19     7     8   ar
    20     8     9   ar
    21    11    12    1
    22    12    13   ar
    23    13    14   ar
    24    14    15   ar
    25    15    16   ar
    26    16    17   ar
    27     9     1    1
    28    17    12   ar
    29    27    23   ar
    30     9     4   ar
    31    27    28    1
@<TRIPOS>MOLECULE
*****
 28 31 0 0 0
SMALL
GASTEIGER

@<TRIPOS>ATOM
      1 C          64.0204   90.3765   14.1166 C.2     1  UNL1       -0.0246
      2 C          63.1746   90.3952   12.8779 C.2     1  UNL1       -0.0421
      3 C          63.9078   91.1761   11.8279 C.3     1  UNL1        0.0480
      4 C          65.2067   91.6400   12.4176 C.ar    1  UNL1       -0.0184
      5 C          66.3350   92.4486   11.8493 C.ar    1  UNL1       -0.0040
      6 C          67.5329   92.7630   12.6955 C.ar    1  UNL1       -0.0003
      7 C          67.6024   92.2689   14.1101 C.ar    1  UNL1       -0.0000
      8 C          66.4741   91.4603   14.6784 C.ar    1  UNL1       -0.0006
      9 C          65.2762   91.1459   13.8321 C.ar    1  UNL1       -0.0079
     10 C          63.2711   90.5311   16.5996 C.3     1  UNL1        0.0111
     11 C          63.6715   89.7062   15.4124 C.3     1  UNL1        0.0634
     12 C          63.7230   88.2111   15.5211 C.ar    1  UNL1        0.0818
     13 C          64.4288   87.4065   14.4701 C.ar    1  UNL1        0.1139
     14 N          64.4803   85.9114   14.5788 N.ar    1  UNL1       -0.2394
     15 C          63.8260   85.2207   15.7385 C.ar    1  UNL1        0.1195
     16 C          63.1202   86.0252   16.7896 C.ar    1  UNL1        0.1191
     17 N          63.0687   87.5204   16.6808 N.ar    1  UNL1       -0.2446
     18 C          61.8315   89.7468   12.7175 C.3     1  UNL1        0.0394
     19 C          60.9690   90.0900   11.5393 C.3     1  UNL1        0.0769
     20 N          60.5766   89.0229   10.5609 N.3     1  UNL1       -0.2648
     21 C          60.5192   89.3342    9.0946 C.3     1  UNL1        0.0900
     22 C          60.2415   87.6446   11.0487 C.3     1  UNL1        0.1369
     23 C          61.2567   86.5452   10.9458 C.ar    1  UNL1        0.1335
     24 N          61.8675   85.7989   12.0946 N.ar    1  UNL1       -0.2281
     25 C          62.8277   84.7914   11.5349 C.ar    1  UNL1        0.1186
     26 C          62.8102   84.9151   10.0401 C.ar    1  UNL1        0.0943
     27 N          61.8393   85.9990    9.6761 N.ar    1  UNL1       -0.3385
     28 H          61.6225   86.2992    8.7639 H       1  UNL1        0.1672
@<TRIPOS>BOND
     1    11    10    1
     2    11     1    1
     3     1     2    2
     4     2    18    1
     5    18    19    1
     6    19    20    1
     7    20    21    1
     8    20    22    1
     9    22    23    1
    10    23    24   ar
    11    24    25   ar
    12    25    26   ar
    13    26    27   ar
    14     2     3    1
    15     3     4    1
    16     4     5   ar
    17     5     6   ar
    18     6     7   ar
    19     7     8   ar
    20     8     9   ar
    21    11    12    1
    22    12    13   ar
    23    13    14   ar
    24    14    15   ar
    25    15    16   ar
    26    16    17   ar
    27     9     1    1
    28    17    12   ar
    29    27    23   ar
    30     9     4   ar
    31    27    28    1
