@<TRIPOS>MOLECULE
*****
 19 21 0 0 0
SMALL
GASTEIGER

@<TRIPOS>ATOM
      1 C          61.3719   88.3506    9.5870 C.3     1  UNL1        0.0364
      2 C          60.1884   88.5798    8.6943 C.3     1  UNL1        0.0236
      3 C          59.0208   88.4991    7.7561 C.3     1  UNL1        0.0690
      4 N          58.8495   87.0649    7.3516 N.3     1  UNL1       -0.2972
      5 C          59.9111   86.2591    8.0399 C.3     1  UNL1        0.0727
      6 C          60.7386   87.1954    8.8697 C.3     1  UNL1        0.0372
      7 H          58.9487   86.9762    6.3404 H       1  UNL1        0.1233
      8 C          61.6679   86.1481    9.4080 C.ar    1  UNL1       -0.0205
      9 C          62.6482   85.4741    8.4944 C.ar    1  UNL1       -0.0033
     10 C          63.5774   84.4269    9.0327 C.ar    1  UNL1        0.0119
     11 C          63.5264   84.0537   10.4846 C.ar    1  UNL1        0.0682
     12 CL         64.4557   83.0065   11.0229 Cl      1  UNL1       -0.0814
     13 C          62.5461   84.7278   11.3982 C.ar    1  UNL1        0.0679
     14 CL         62.4951   84.3546   12.8502 Cl      1  UNL1       -0.0814
     15 C          61.6168   85.7750   10.8599 C.ar    1  UNL1        0.0080
     16 C          62.4208   88.8853   10.5165 C.3     1  UNL1        0.1425
     17 O          62.0979   89.1051   11.9647 O.3     1  UNL1       -0.3538
     18 C          64.0055   89.1380   13.7281 C.3     1  UNL1        0.0346
     19 C          63.0477   89.8715   12.8369 C.3     1  UNL1        0.1422
@<TRIPOS>BOND
     1    18    19    1
     2    19    17    1
     3    17    16    1
     4     1    16    1
     5     1     2    1
     6     2     3    1
     7     3     4    1
     8     4     5    1
     9     5     6    1
    10     6     8    1
    11     8     9   ar
    12     9    10   ar
    13    10    11   ar
    14    11    12    1
    15    11    13   ar
    16    13    14    1
    17    13    15   ar
    18     6     1    1
    19    15     8   ar
    20     6     2    1
    21     4     7    1
@<TRIPOS>MOLECULE
*****
 19 21 0 0 0
SMALL
GASTEIGER

@<TRIPOS>ATOM
      1 C          62.9132   85.5894   12.5289 C.3     1  UNL1        0.0364
      2 C          63.6838   86.1814   13.6715 C.3     1  UNL1        0.0236
      3 C          64.5789   86.4865   14.8358 C.3     1  UNL1        0.0690
      4 N          65.3356   85.2375   15.1784 N.3     1  UNL1       -0.2972
      5 C          64.9082   84.1605   14.2259 C.3     1  UNL1        0.0727
      6 C          63.8873   84.7439   13.2945 C.3     1  UNL1        0.0372
      7 H          65.1244   84.9565   16.1359 H       1  UNL1        0.1233
      8 C          63.6634   83.4902   12.5020 C.ar    1  UNL1       -0.0205
      9 C          64.0804   83.4284   11.0624 C.ar    1  UNL1       -0.0033
     10 C          63.8566   82.1746   10.2699 C.ar    1  UNL1        0.0119
     11 C          63.2158   80.9828   10.9170 C.ar    1  UNL1        0.0682
     12 CL         62.9920   79.7290   10.1244 Cl      1  UNL1       -0.0814
     13 C          62.7989   81.0445   12.3565 C.ar    1  UNL1        0.0679
     14 CL         62.1581   79.8525   13.0036 Cl      1  UNL1       -0.0814
     15 C          63.0227   82.2983   13.1490 C.ar    1  UNL1        0.0080
     16 C          61.9058   85.7358   11.4271 C.3     1  UNL1        0.1425
     17 O          62.2360   86.5516   10.2125 O.3     1  UNL1       -0.3538
     18 C          62.9478   85.2387    8.0866 C.3     1  UNL1        0.0346
     19 C          61.9185   86.0231    8.8450 C.3     1  UNL1        0.1422
@<TRIPOS>BOND
     1    18    19    1
     2    19    17    1
     3    17    16    1
     4     1    16    1
     5     1     2    1
     6     2     3    1
     7     3     4    1
     8     4     5    1
     9     5     6    1
    10     6     8    1
    11     8     9   ar
    12     9    10   ar
    13    10    11   ar
    14    11    12    1
    15    11    13   ar
    16    13    14    1
    17    13    15   ar
    18     6     1    1
    19    15     8   ar
    20     6     2    1
    21     4     7    1
@<TRIPOS>MOLECULE
*****
 19 21 0 0 0
SMALL
GASTEIGER

@<TRIPOS>ATOM
      1 C          63.6235   90.4378   12.6962 C.3     1  UNL1        0.0364
      2 C          64.5669   91.5940   12.5433 C.3     1  UNL1        0.0236
      3 C          65.6106   92.6633   12.6745 C.3     1  UNL1        0.0690
      4 N          66.2881   92.4893   14.0015 N.3     1  UNL1       -0.2972
      5 C          65.6630   91.3126   14.6904 C.3     1  UNL1        0.0727
      6 C          64.5993   90.7592   13.7892 C.3     1  UNL1        0.0372
      7 H          66.1620   93.3287   14.5671 H       1  UNL1        0.1233
      8 C          64.1782   89.6496   14.7065 C.ar    1  UNL1       -0.0205
      9 C          63.4330   89.9631   15.9700 C.ar    1  UNL1       -0.0033
     10 C          63.0120   88.8535   16.8874 C.ar    1  UNL1        0.0119
     11 C          63.3361   87.4305   16.5412 C.ar    1  UNL1        0.0682
     12 CL         62.9151   86.3209   17.4586 Cl      1  UNL1       -0.0814
     13 C          64.0813   87.1170   15.2777 C.ar    1  UNL1        0.0679
     14 CL         64.4054   85.6939   14.9315 Cl      1  UNL1       -0.0814
     15 C          64.5023   88.2266   14.3603 C.ar    1  UNL1        0.0080
     16 C          62.5155   89.5848   12.1534 C.3     1  UNL1        0.1425
     17 O          61.1569   89.6271   12.7876 O.3     1  UNL1       -0.3538
     18 C          60.0503   90.1831   10.5037 C.3     1  UNL1        0.0346
     19 C          59.9313   89.7308   11.9290 C.3     1  UNL1        0.1422
@<TRIPOS>BOND
     1    18    19    1
     2    19    17    1
     3    17    16    1
     4     1    16    1
     5     1     2    1
     6     2     3    1
     7     3     4    1
     8     4     5    1
     9     5     6    1
    10     6     8    1
    11     8     9   ar
    12     9    10   ar
    13    10    11   ar
    14    11    12    1
    15    11    13   ar
    16    13    14    1
    17    13    15   ar
    18     6     1    1
    19    15     8   ar
    20     6     2    1
    21     4     7    1
@<TRIPOS>MOLECULE
*****
 19 21 0 0 0
SMALL
GASTEIGER

@<TRIPOS>ATOM
      1 C          60.2222   88.1638    9.5911 C.3     1  UNL1        0.0364
      2 C          60.3178   89.4496   10.3576 C.3     1  UNL1        0.0236
      3 C          60.6625   90.5992   11.2573 C.3     1  UNL1        0.0690
      4 N          61.8740   90.2167   12.0547 N.3     1  UNL1       -0.2972
      5 C          62.2781   88.8306   11.6478 C.3     1  UNL1        0.0727
      6 C          61.3163   88.3565   10.5989 C.3     1  UNL1        0.0372
      7 H          61.6530   90.2345   13.0503 H       1  UNL1        0.1233
      8 C          61.9490   87.0107   10.4027 C.ar    1  UNL1       -0.0205
      9 C          62.4851   86.6231    9.0565 C.ar    1  UNL1       -0.0033
     10 C          63.1179   85.2773    8.8603 C.ar    1  UNL1        0.0119
     11 C          63.2145   84.3192   10.0103 C.ar    1  UNL1        0.0682
     12 CL         63.8473   82.9734    9.8140 Cl      1  UNL1       -0.0814
     13 C          62.6785   84.7068   11.3565 C.ar    1  UNL1        0.0679
     14 CL         62.7751   83.7486   12.5066 Cl      1  UNL1       -0.0814
     15 C          62.0457   86.0526   11.5527 C.ar    1  UNL1        0.0080
     16 C          59.5352   87.3102    8.5666 C.3     1  UNL1        0.1425
     17 O          59.0190   87.9271    7.3006 O.3     1  UNL1       -0.3538
     18 C          58.7797   90.0714    5.8532 C.3     1  UNL1        0.0346
     19 C          59.5582   89.2474    6.8355 C.3     1  UNL1        0.1422
@<TRIPOS>BOND
     1    18    19    1
     2    19    17    1
     3    17    16    1
     4     1    16    1
     5     1     2    1
     6     2     3    1
     7     3     4    1
     8     4     5    1
     9     5     6    1
    10     6     8    1
    11     8     9   ar
    12     9    10   ar
    13    10    11   ar
    14    11    12    1
    15    11    13   ar
    16    13    14    1
    17    13    15   ar
    18     6     1    1
    19    15     8   ar
    20     6     2    1
    21     4     7    1
@<TRIPOS>MOLECULE
*****
 19 21 0 0 0
SMALL
GASTEIGER

@<TRIPOS>ATOM
      1 C          63.8978   84.1209   13.5788 C.3     1  UNL1        0.0364
      2 C          63.8953   82.6426   13.8331 C.3     1  UNL1        0.0236
      3 C          63.7309   81.1517   13.8192 C.3     1  UNL1        0.0690
      4 N          62.9558   80.7824   12.5891 N.3     1  UNL1       -0.2972
      5 C          62.6413   82.0450   11.8429 C.3     1  UNL1        0.0727
      6 C          63.2219   83.1947   12.6117 C.3     1  UNL1        0.0372
      7 H          62.0904   80.3119   12.8536 H       1  UNL1        0.1233
      8 C          62.7661   84.2637   11.6633 C.ar    1  UNL1       -0.0205
      9 C          61.8921   85.3794   12.1547 C.ar    1  UNL1       -0.0033
     10 C          61.4362   86.4484   11.2063 C.ar    1  UNL1        0.0119
     11 C          61.8544   86.4017    9.7666 C.ar    1  UNL1        0.0682
     12 CL         61.3985   87.4707    8.8182 Cl      1  UNL1       -0.0814
     13 C          62.7283   85.2861    9.2752 C.ar    1  UNL1        0.0679
     14 CL         63.1465   85.2394    7.8354 Cl      1  UNL1       -0.0814
     15 C          63.1842   84.2171   10.2236 C.ar    1  UNL1        0.0080
     16 C          64.2896   85.5091   13.9904 C.3     1  UNL1        0.1425
     17 O          63.5134   86.2221   15.0577 O.3     1  UNL1       -0.3538
     18 C          62.7270   86.4001   17.5275 C.3     1  UNL1        0.0346
     19 C          63.4549   85.6577   16.4462 C.3     1  UNL1        0.1422
@<TRIPOS>BOND
     1    18    19    1
     2    19    17    1
     3    17    16    1
     4     1    16    1
     5     1     2    1
     6     2     3    1
     7     3     4    1
     8     4     5    1
     9     5     6    1
    10     6     8    1
    11     8     9   ar
    12     9    10   ar
    13    10    11   ar
    14    11    12    1
    15    11    13   ar
    16    13    14    1
    17    13    15   ar
    18     6     1    1
    19    15     8   ar
    20     6     2    1
    21     4     7    1
@<TRIPOS>MOLECULE
*****
 19 21 0 0 0
SMALL
GASTEIGER

@<TRIPOS>ATOM
      1 C          62.5308   84.9092   11.4640 C.3     1  UNL1        0.0364
      2 C          63.2624   83.8523   10.6909 C.3     1  UNL1        0.0236
      3 C          64.1290   82.7334   10.1939 C.3     1  UNL1        0.0690
      4 N          64.9280   82.2160   11.3532 N.3     1  UNL1       -0.2972
      5 C          64.5552   83.0151   12.5666 C.3     1  UNL1        0.0727
      6 C          63.5258   84.0264   12.1573 C.3     1  UNL1        0.0372
      7 H          65.9243   82.3219   11.1616 H       1  UNL1        0.1233
      8 C          63.3610   84.6410   13.5157 C.ar    1  UNL1       -0.0205
      9 C          62.6435   83.8888   14.5971 C.ar    1  UNL1       -0.0033
     10 C          62.4787   84.5034   15.9555 C.ar    1  UNL1        0.0119
     11 C          63.0313   85.8701   16.2323 C.ar    1  UNL1        0.0682
     12 CL         62.8665   86.4847   17.5907 Cl      1  UNL1       -0.0814
     13 C          63.7488   86.6222   15.1509 C.ar    1  UNL1        0.0679
     14 CL         64.3014   87.9890   15.4278 Cl      1  UNL1       -0.0814
     15 C          63.9136   86.0076   13.7925 C.ar    1  UNL1        0.0080
     16 C          61.5340   86.0291   11.5100 C.3     1  UNL1        0.1425
     17 O          61.7273   87.2412   10.6478 O.3     1  UNL1       -0.3538
     18 C          60.4414   86.3423    8.5769 C.3     1  UNL1        0.0346
     19 C          61.5739   87.1349    9.1594 C.3     1  UNL1        0.1422
@<TRIPOS>BOND
     1    18    19    1
     2    19    17    1
     3    17    16    1
     4     1    16    1
     5     1     2    1
     6     2     3    1
     7     3     4    1
     8     4     5    1
     9     5     6    1
    10     6     8    1
    11     8     9   ar
    12     9    10   ar
    13    10    11   ar
    14    11    12    1
    15    11    13   ar
    16    13    14    1
    17    13    15   ar
    18     6     1    1
    19    15     8   ar
    20     6     2    1
    21     4     7    1
@<TRIPOS>MOLECULE
*****
 19 21 0 0 0
SMALL
GASTEIGER

@<TRIPOS>ATOM
      1 C          63.0037   84.2279   12.4959 C.3     1  UNL1        0.0364
      2 C          63.6765   84.9608   13.6185 C.3     1  UNL1        0.0236
      3 C          64.2681   85.9495   14.5789 C.3     1  UNL1        0.0690
      4 N          64.0207   87.3264   14.0377 N.3     1  UNL1       -0.2972
      5 C          63.2762   87.1887   12.7428 C.3     1  UNL1        0.0727
      6 C          63.0634   85.7267   12.4838 C.3     1  UNL1        0.0372
      7 H          64.9097   87.8001   13.8772 H       1  UNL1        0.1233
      8 C          62.3314   85.9022   11.1863 C.ar    1  UNL1       -0.0205
      9 C          61.0464   86.6752   11.1488 C.ar    1  UNL1       -0.0033
     10 C          60.3144   86.8507    9.8514 C.ar    1  UNL1        0.0119
     11 C          60.8673   86.2534    8.5916 C.ar    1  UNL1        0.0682
     12 CL         60.1352   86.4289    7.2941 Cl      1  UNL1       -0.0814
     13 C          62.1522   85.4804    8.6291 C.ar    1  UNL1        0.0679
     14 CL         62.7052   84.8830    7.3691 Cl      1  UNL1       -0.0814
     15 C          62.8843   85.3048    9.9265 C.ar    1  UNL1        0.0080
     16 C          62.5808   82.9394   11.8548 C.3     1  UNL1        0.1425
     17 O          62.9239   81.6311   12.5033 O.3     1  UNL1       -0.3538
     18 C          60.9941   80.9560   14.1064 C.3     1  UNL1        0.0346
     19 C          62.4307   81.3277   13.8870 C.3     1  UNL1        0.1422
@<TRIPOS>BOND
     1    18    19    1
     2    19    17    1
     3    17    16    1
     4     1    16    1
     5     1     2    1
     6     2     3    1
     7     3     4    1
     8     4     5    1
     9     5     6    1
    10     6     8    1
    11     8     9   ar
    12     9    10   ar
    13    10    11   ar
    14    11    12    1
    15    11    13   ar
    16    13    14    1
    17    13    15   ar
    18     6     1    1
    19    15     8   ar
    20     6     2    1
    21     4     7    1
@<TRIPOS>MOLECULE
*****
 19 21 0 0 0
SMALL
GASTEIGER

@<TRIPOS>ATOM
      1 C          63.4512   85.5259   13.8245 C.3     1  UNL1        0.0364
      2 C          63.1720   84.5209   14.9024 C.3     1  UNL1        0.0236
      3 C          62.8165   83.3288   15.7406 C.3     1  UNL1        0.0690
      4 N          62.3933   82.2237   14.8189 N.3     1  UNL1       -0.2972
      5 C          62.4873   82.7328   13.4110 C.3     1  UNL1        0.0727
      6 C          62.9685   84.1525   13.4627 C.3     1  UNL1        0.0372
      7 H          61.4325   81.9502   15.0246 H       1  UNL1        0.1233
      8 C          62.9616   84.3745   11.9792 C.ar    1  UNL1       -0.0205
      9 C          63.8514   83.5533   11.0938 C.ar    1  UNL1       -0.0033
     10 C          63.8444   83.7753    9.6103 C.ar    1  UNL1        0.0119
     11 C          62.9477   84.8184    9.0123 C.ar    1  UNL1        0.0682
     12 CL         62.9408   85.0404    7.5288 Cl      1  UNL1       -0.0814
     13 C          62.0580   85.6396    9.8977 C.ar    1  UNL1        0.0679
     14 CL         61.1612   86.6828    9.2996 Cl      1  UNL1       -0.0814
     15 C          62.0649   85.4176   11.3812 C.ar    1  UNL1        0.0080
     16 C          63.8911   86.8990   13.4110 C.3     1  UNL1        0.1425
     17 O          64.1371   87.9524   14.4501 O.3     1  UNL1       -0.3538
     18 C          63.5189   89.8115   12.7437 C.3     1  UNL1        0.0346
     19 C          64.0738   89.4038   14.0763 C.3     1  UNL1        0.1422
@<TRIPOS>BOND
     1    18    19    1
     2    19    17    1
     3    17    16    1
     4     1    16    1
     5     1     2    1
     6     2     3    1
     7     3     4    1
     8     4     5    1
     9     5     6    1
    10     6     8    1
    11     8     9   ar
    12     9    10   ar
    13    10    11   ar
    14    11    12    1
    15    11    13   ar
    16    13    14    1
    17    13    15   ar
    18     6     1    1
    19    15     8   ar
    20     6     2    1
    21     4     7    1
@<TRIPOS>MOLECULE
*****
 19 21 0 0 0
SMALL
GASTEIGER

@<TRIPOS>ATOM
      1 C          62.2877   86.3498   11.3888 C.3     1  UNL1        0.0364
      2 C          62.8844   87.5362   12.0863 C.3     1  UNL1        0.0236
      3 C          63.5835   88.5089   12.9891 C.3     1  UNL1        0.0690
      4 N          64.1987   87.7346   14.1169 N.3     1  UNL1       -0.2972
      5 C          63.8798   86.2834   13.9112 C.3     1  UNL1        0.0727
      6 C          63.0674   86.1608   12.6562 C.3     1  UNL1        0.0372
      7 H          63.8117   88.0514   15.0059 H       1  UNL1        0.1233
      8 C          62.9115   84.6701   12.7154 C.ar    1  UNL1       -0.0205
      9 C          62.3880   84.0196   13.9615 C.ar    1  UNL1       -0.0033
     10 C          62.2320   82.5289   14.0207 C.ar    1  UNL1        0.0119
     11 C          62.5996   81.6887   12.8338 C.ar    1  UNL1        0.0682
     12 CL         62.4437   80.1980   12.8930 Cl      1  UNL1       -0.0814
     13 C          63.1232   82.3392   11.5876 C.ar    1  UNL1        0.0679
     14 CL         63.4908   81.4989   10.4006 Cl      1  UNL1       -0.0814
     15 C          63.2791   83.8299   11.5284 C.ar    1  UNL1        0.0080
     16 C          61.4931   85.7740   10.2543 C.3     1  UNL1        0.1425
     17 O          61.4874   86.4581    8.9194 O.3     1  UNL1       -0.3538
     18 C          59.1554   86.6524    7.7907 C.3     1  UNL1        0.0346
     19 C          60.3087   87.2894    8.5077 C.3     1  UNL1        0.1422
@<TRIPOS>BOND
     1    18    19    1
     2    19    17    1
     3    17    16    1
     4     1    16    1
     5     1     2    1
     6     2     3    1
     7     3     4    1
     8     4     5    1
     9     5     6    1
    10     6     8    1
    11     8     9   ar
    12     9    10   ar
    13    10    11   ar
    14    11    12    1
    15    11    13   ar
    16    13    14    1
    17    13    15   ar
    18     6     1    1
    19    15     8   ar
    20     6     2    1
    21     4     7    1
