@<TRIPOS>MOLECULE
*****
 29 33 0 0 0
SMALL
GASTEIGER

@<TRIPOS>ATOM
      1 C          62.8829   90.0064   11.6281 C.ar    1  UNL1        0.1327
      2 N          63.3170   90.9977   10.5894 N.ar    1  UNL1       -0.2303
      3 C          64.4452   91.8042   11.1611 C.ar    1  UNL1        0.0983
      4 C          65.2668   92.9237   10.5939 C.ar    1  UNL1        0.0206
      5 C          66.3516   93.5502   11.4188 C.ar    1  UNL1        0.0016
      6 C          66.6148   93.0573   12.8108 C.ar    1  UNL1        0.0016
      7 C          65.7933   91.9378   13.3780 C.ar    1  UNL1        0.0188
      8 C          64.7084   91.3113   12.5531 C.ar    1  UNL1        0.0786
      9 N          63.7429   90.2002   12.8417 N.ar    1  UNL1       -0.3163
     10 C          63.6532   89.4199   14.1196 C.3     1  UNL1        0.0866
     11 C          63.0430   90.0451   15.3389 C.3     1  UNL1        0.0226
     12 C          62.9532   89.2648   16.6168 C.3     1  UNL1        0.0019
     13 C          63.4737   87.8592   16.6755 C.3     1  UNL1        0.0001
     14 C          64.0839   87.2339   15.4562 C.3     1  UNL1        0.0019
     15 C          64.1736   88.0142   14.1783 C.3     1  UNL1        0.0226
     16 C          61.7822   88.9983   11.4793 C.3     1  UNL1        0.1852
     17 O          62.5537   85.5287    7.6889 O.2     1  UNL1       -0.2422
     18 C          62.4867   85.8636    9.1495 C.2     1  UNL1        0.3644
     19 C          62.7384   84.7988   10.1755 C.3     1  UNL1        0.2333
     20 C          62.6714   85.1337   11.6360 C.2     1  UNL1        0.3159
     21 N          62.3527   86.5335   12.0707 N.2     1  UNL1       -0.0039
     22 C          62.1010   87.5985   11.0447 C.2     1  UNL1        0.3563
     23 N          62.1680   87.2635    9.5841 N.am    1  UNL1        0.0288
     24 N          62.9231   84.0688   12.6620 N.pl3   1  UNL1       -0.1888
     25 C          63.5448   82.7661   12.2539 C.3     1  UNL1        0.2343
     26 C          63.7965   81.7012   13.2798 C.3     1  UNL1        0.1929
     27 O          63.4266   81.9389   14.7138 O.3     1  UNL1       -0.3449
     28 C          62.8049   83.2416   15.1220 C.3     1  UNL1        0.1929
     29 C          62.5532   84.3065   14.0961 C.3     1  UNL1        0.2343
@<TRIPOS>BOND
     1    17    18    2
     2    18    19    1
     3    19    20    1
     4    20    24    1
     5    24    25    1
     6    25    26    1
     7    26    27    1
     8    27    28    1
     9    28    29    1
    10    20    21    2
    11    21    22    1
    12    22    16    1
    13    16     1    1
    14     1     2   ar
    15     2     3   ar
    16     3     4   ar
    17     4     5   ar
    18     5     6   ar
    19     6     7   ar
    20     7     8   ar
    21     8     9   ar
    22     9    10    1
    23    10    11    1
    24    11    12    1
    25    12    13    1
    26    13    14    1
    27    14    15    1
    28    22    23    2
    29    23    18    1
    30    29    24    1
    31     9     1   ar
    32    15    10    1
    33     8     3   ar
@<TRIPOS>MOLECULE
*****
 29 33 0 0 0
SMALL
GASTEIGER

@<TRIPOS>ATOM
      1 C          63.0079   90.3653   12.6795 C.ar    1  UNL1        0.1327
      2 N          63.5782   91.5134   11.9006 N.ar    1  UNL1       -0.2303
      3 C          64.8889   91.8912   12.5246 C.ar    1  UNL1        0.0983
      4 C          65.8950   92.9499   12.1829 C.ar    1  UNL1        0.0206
      5 C          67.1409   93.0940   13.0057 C.ar    1  UNL1        0.0016
      6 C          67.3806   92.1795   14.1702 C.ar    1  UNL1        0.0016
      7 C          66.3745   91.1208   14.5119 C.ar    1  UNL1        0.0188
      8 C          65.1286   90.9767   13.6891 C.ar    1  UNL1        0.0786
      9 N          63.9661   90.0336   13.7848 N.ar    1  UNL1       -0.3163
     10 C          63.7923   88.9492   14.8065 C.3     1  UNL1        0.0866
     11 C          63.1346   89.2542   16.1195 C.3     1  UNL1        0.0226
     12 C          62.9608   88.1698   17.1412 C.3     1  UNL1        0.0019
     13 C          63.4448   86.7802   16.8498 C.3     1  UNL1        0.0001
     14 C          64.1027   86.4751   15.5368 C.3     1  UNL1        0.0019
     15 C          64.2764   87.5596   14.5151 C.3     1  UNL1        0.0226
     16 C          61.7077   89.6708   12.4017 C.3     1  UNL1        0.1852
     17 O          60.1582   87.6690    7.8639 O.2     1  UNL1       -0.2422
     18 C          60.8865   87.5231    9.1670 C.2     1  UNL1        0.3644
     19 C          61.5684   86.2304    9.5045 C.3     1  UNL1        0.2333
     20 C          62.2967   86.0845   10.8077 C.2     1  UNL1        0.3159
     21 N          62.3431   87.2312   11.7734 N.2     1  UNL1       -0.0039
     22 C          61.6612   88.5240   11.4360 C.2     1  UNL1        0.3563
     23 N          60.9329   88.6700   10.1328 N.am    1  UNL1        0.0288
     24 N          62.9786   84.7917   11.1451 N.pl3   1  UNL1       -0.1888
     25 C          63.1174   84.3685   12.5774 C.3     1  UNL1        0.2343
     26 C          63.7992   83.0758   12.9149 C.3     1  UNL1        0.1929
     27 O          64.3422   82.2062   11.8200 O.3     1  UNL1       -0.3449
     28 C          64.2034   82.6294   10.3876 C.3     1  UNL1        0.1929
     29 C          63.5216   83.9221   10.0502 C.3     1  UNL1        0.2343
@<TRIPOS>BOND
     1    17    18    2
     2    18    19    1
     3    19    20    1
     4    20    24    1
     5    24    25    1
     6    25    26    1
     7    26    27    1
     8    27    28    1
     9    28    29    1
    10    20    21    2
    11    21    22    1
    12    22    16    1
    13    16     1    1
    14     1     2   ar
    15     2     3   ar
    16     3     4   ar
    17     4     5   ar
    18     5     6   ar
    19     6     7   ar
    20     7     8   ar
    21     8     9   ar
    22     9    10    1
    23    10    11    1
    24    11    12    1
    25    12    13    1
    26    13    14    1
    27    14    15    1
    28    22    23    2
    29    23    18    1
    30    29    24    1
    31     9     1   ar
    32    15    10    1
    33     8     3   ar
@<TRIPOS>MOLECULE
*****
 29 33 0 0 0
SMALL
GASTEIGER

@<TRIPOS>ATOM
      1 C          63.2156   88.0459   12.5692 C.ar    1  UNL1        0.1327
      2 N          63.9659   87.6251   13.7980 N.ar    1  UNL1       -0.2303
      3 C          63.9238   86.1278   13.8769 C.ar    1  UNL1        0.0983
      4 C          64.4921   85.1587   14.8708 C.ar    1  UNL1        0.0206
      5 C          64.2841   83.6850   14.6846 C.ar    1  UNL1        0.0016
      6 C          63.5078   83.1803   13.5045 C.ar    1  UNL1        0.0016
      7 C          62.9395   84.1493   12.5106 C.ar    1  UNL1        0.0188
      8 C          63.1475   85.6231   12.6968 C.ar    1  UNL1        0.0786
      9 N          62.7098   86.8085   11.8886 N.ar    1  UNL1       -0.3163
     10 C          61.9073   86.7644   10.6221 C.3     1  UNL1        0.0866
     11 C          62.4193   86.0026    9.4358 C.3     1  UNL1        0.0226
     12 C          61.6168   85.9584    8.1694 C.3     1  UNL1        0.0019
     13 C          60.3020   86.6761    8.0892 C.3     1  UNL1        0.0001
     14 C          59.7899   87.4379    9.2755 C.3     1  UNL1        0.0019
     15 C          60.5924   87.4821   10.5420 C.3     1  UNL1        0.0226
     16 C          63.0076   89.4563   12.1028 C.3     1  UNL1        0.1852
     17 O          65.1188   92.1543   16.0097 O.2     1  UNL1       -0.2422
     18 C          64.9718   91.8967   14.5394 C.2     1  UNL1        0.3644
     19 C          65.7334   92.7304   13.5521 C.3     1  UNL1        0.2333
     20 C          65.5864   92.4728   12.0817 C.2     1  UNL1        0.3159
     21 N          64.6778   91.3815   11.5986 N.2     1  UNL1       -0.0039
     22 C          63.9162   90.5476   12.5859 C.2     1  UNL1        0.3563
     23 N          64.0632   90.8052   14.0563 N.am    1  UNL1        0.0288
     24 N          66.3480   93.3067   11.0943 N.pl3   1  UNL1       -0.1888
     25 C          67.3144   92.6551   10.1501 C.3     1  UNL1        0.2343
     26 C          68.0760   93.4888    9.1628 C.3     1  UNL1        0.1929
     27 O          67.8712   94.9741    9.1198 O.3     1  UNL1       -0.3449
     28 C          66.9048   95.6257   10.0640 C.3     1  UNL1        0.1929
     29 C          66.1432   94.7919   11.0513 C.3     1  UNL1        0.2343
@<TRIPOS>BOND
     1    17    18    2
     2    18    19    1
     3    19    20    1
     4    20    24    1
     5    24    25    1
     6    25    26    1
     7    26    27    1
     8    27    28    1
     9    28    29    1
    10    20    21    2
    11    21    22    1
    12    22    16    1
    13    16     1    1
    14     1     2   ar
    15     2     3   ar
    16     3     4   ar
    17     4     5   ar
    18     5     6   ar
    19     6     7   ar
    20     7     8   ar
    21     8     9   ar
    22     9    10    1
    23    10    11    1
    24    11    12    1
    25    12    13    1
    26    13    14    1
    27    14    15    1
    28    22    23    2
    29    23    18    1
    30    29    24    1
    31     9     1   ar
    32    15    10    1
    33     8     3   ar
@<TRIPOS>MOLECULE
*****
 29 33 0 0 0
SMALL
GASTEIGER

@<TRIPOS>ATOM
      1 C          62.4787   87.6318   11.5179 C.ar    1  UNL1        0.1327
      2 N          61.7413   88.8010   10.9355 N.ar    1  UNL1       -0.2303
      3 C          60.9581   88.3128    9.7531 C.ar    1  UNL1        0.0983
      4 C          60.0469   89.0176    8.7924 C.ar    1  UNL1        0.0206
      5 C          59.3891   88.2514    7.6832 C.ar    1  UNL1        0.0016
      6 C          59.6425   86.7804    7.5348 C.ar    1  UNL1        0.0016
      7 C          60.5537   86.0756    8.4955 C.ar    1  UNL1        0.0188
      8 C          61.2114   86.8418    9.6046 C.ar    1  UNL1        0.0786
      9 N          62.1512   86.4210   10.6954 N.ar    1  UNL1       -0.3163
     10 C          62.6721   85.0329   10.9235 C.3     1  UNL1        0.0866
     11 C          63.4774   84.3496    9.8585 C.3     1  UNL1        0.0226
     12 C          63.9983   82.9615   10.0866 C.3     1  UNL1        0.0019
     13 C          63.7139   82.2568   11.3798 C.3     1  UNL1        0.0001
     14 C          62.9085   82.9401   12.4449 C.3     1  UNL1        0.0019
     15 C          62.3876   84.3282   12.2168 C.3     1  UNL1        0.0226
     16 C          63.3845   87.6673   12.7130 C.3     1  UNL1        0.1852
     17 O          63.3952   90.7044   16.9291 O.2     1  UNL1       -0.2422
     18 C          63.7134   90.4948   15.4783 C.2     1  UNL1        0.3644
     19 C          64.3553   91.5940   14.6849 C.3     1  UNL1        0.2333
     20 C          64.6736   91.3843   13.2341 C.2     1  UNL1        0.3159
     21 N          64.3500   90.0755   12.5768 N.2     1  UNL1       -0.0039
     22 C          63.7081   88.9761   13.3703 C.2     1  UNL1        0.3563
     23 N          63.3898   89.1858   14.8211 N.am    1  UNL1        0.0288
     24 N          65.3155   92.4837   12.4406 N.pl3   1  UNL1       -0.1888
     25 C          65.3318   92.4160   10.9422 C.3     1  UNL1        0.2343
     26 C          65.9736   93.5152   10.1487 C.3     1  UNL1        0.1929
     27 O          66.5991   94.6821   10.8536 O.3     1  UNL1       -0.3449
     28 C          66.5828   94.7498   12.3520 C.3     1  UNL1        0.1929
     29 C          65.9410   93.6506   13.1455 C.3     1  UNL1        0.2343
@<TRIPOS>BOND
     1    17    18    2
     2    18    19    1
     3    19    20    1
     4    20    24    1
     5    24    25    1
     6    25    26    1
     7    26    27    1
     8    27    28    1
     9    28    29    1
    10    20    21    2
    11    21    22    1
    12    22    16    1
    13    16     1    1
    14     1     2   ar
    15     2     3   ar
    16     3     4   ar
    17     4     5   ar
    18     5     6   ar
    19     6     7   ar
    20     7     8   ar
    21     8     9   ar
    22     9    10    1
    23    10    11    1
    24    11    12    1
    25    12    13    1
    26    13    14    1
    27    14    15    1
    28    22    23    2
    29    23    18    1
    30    29    24    1
    31     9     1   ar
    32    15    10    1
    33     8     3   ar
@<TRIPOS>MOLECULE
*****
 29 33 0 0 0
SMALL
GASTEIGER

@<TRIPOS>ATOM
      1 C          63.3727   89.4084   12.8676 C.ar    1  UNL1        0.1327
      2 N          62.6999   90.3660   11.9293 N.ar    1  UNL1       -0.2303
      3 C          61.9690   89.5640   10.8937 C.ar    1  UNL1        0.0983
      4 C          61.1307   89.9693    9.7177 C.ar    1  UNL1        0.0206
      5 C          60.5134   88.9213    8.8400 C.ar    1  UNL1        0.0016
      6 C          60.7344   87.4679    9.1382 C.ar    1  UNL1        0.0016
      7 C          61.5727   87.0626   10.3142 C.ar    1  UNL1        0.0188
      8 C          62.1900   88.1107   11.1919 C.ar    1  UNL1        0.0786
      9 N          63.0575   88.0145   12.4118 N.ar    1  UNL1       -0.3163
     10 C          63.5273   86.7469   13.0619 C.3     1  UNL1        0.0866
     11 C          64.3395   86.8064   14.3215 C.3     1  UNL1        0.0226
     12 C          64.8094   85.5388   14.9715 C.3     1  UNL1        0.0019
     13 C          64.4670   84.2117   14.3619 C.3     1  UNL1        0.0001
     14 C          63.6548   84.1522   13.1022 C.3     1  UNL1        0.0019
     15 C          63.1849   85.4198   12.4522 C.3     1  UNL1        0.0226
     16 C          64.2131   89.7795   14.0534 C.3     1  UNL1        0.1852
     17 O          67.0899   93.3563   16.4886 O.2     1  UNL1       -0.2422
     18 C          66.5195   92.7903   15.2220 C.2     1  UNL1        0.3644
     19 C          66.8171   93.4465   13.9065 C.3     1  UNL1        0.2333
     20 C          66.2467   92.8805   12.6399 C.2     1  UNL1        0.3159
     21 N          65.3787   91.6582   12.6888 N.2     1  UNL1       -0.0039
     22 C          65.0811   91.0018   14.0044 C.2     1  UNL1        0.3563
     23 N          65.6515   91.5679   15.2710 N.am    1  UNL1        0.0288
     24 N          66.5443   93.5369   11.3243 N.pl3   1  UNL1       -0.1888
     25 C          67.3793   92.8239   10.3023 C.3     1  UNL1        0.2343
     26 C          67.6770   93.4802    8.9868 C.3     1  UNL1        0.1929
     27 O          67.1396   94.8494    8.6932 O.3     1  UNL1       -0.3449
     28 C          66.3046   95.5624    9.7152 C.3     1  UNL1        0.1929
     29 C          66.0070   94.9062   11.0307 C.3     1  UNL1        0.2343
@<TRIPOS>BOND
     1    17    18    2
     2    18    19    1
     3    19    20    1
     4    20    24    1
     5    24    25    1
     6    25    26    1
     7    26    27    1
     8    27    28    1
     9    28    29    1
    10    20    21    2
    11    21    22    1
    12    22    16    1
    13    16     1    1
    14     1     2   ar
    15     2     3   ar
    16     3     4   ar
    17     4     5   ar
    18     5     6   ar
    19     6     7   ar
    20     7     8   ar
    21     8     9   ar
    22     9    10    1
    23    10    11    1
    24    11    12    1
    25    12    13    1
    26    13    14    1
    27    14    15    1
    28    22    23    2
    29    23    18    1
    30    29    24    1
    31     9     1   ar
    32    15    10    1
    33     8     3   ar
@<TRIPOS>MOLECULE
*****
 29 33 0 0 0
SMALL
GASTEIGER

@<TRIPOS>ATOM
      1 C          63.0768   88.5801   12.1584 C.ar    1  UNL1        0.1327
      2 N          63.8386   88.3537   13.4306 N.ar    1  UNL1       -0.2303
      3 C          63.8324   86.8817   13.7189 C.ar    1  UNL1        0.0983
      4 C          64.4250   86.0753   14.8363 C.ar    1  UNL1        0.0206
      5 C          64.2520   84.5855   14.8596 C.ar    1  UNL1        0.0016
      6 C          63.4865   83.9021   13.7656 C.ar    1  UNL1        0.0016
      7 C          62.8939   84.7085   12.6483 C.ar    1  UNL1        0.0188
      8 C          63.0669   86.1983   12.6249 C.ar    1  UNL1        0.0786
      9 N          62.5999   87.2480   11.6605 N.ar    1  UNL1       -0.3163
     10 C          61.7969   87.0076   10.4165 C.3     1  UNL1        0.0866
     11 C          62.3569   86.1577    9.3148 C.3     1  UNL1        0.0226
     12 C          61.5540   85.9174    8.0708 C.3     1  UNL1        0.0019
     13 C          60.1909   86.5271    7.9285 C.3     1  UNL1        0.0001
     14 C          59.6308   87.3771    9.0302 C.3     1  UNL1        0.0019
     15 C          60.4337   87.6174   10.2742 C.3     1  UNL1        0.0226
     16 C          62.8345   89.9058   11.4998 C.3     1  UNL1        0.1852
     17 O          65.2581   94.0110    9.4325 O.2     1  UNL1       -0.2422
     18 C          65.0764   93.0443   10.5650 C.2     1  UNL1        0.3644
     19 C          65.9247   93.1636   11.7963 C.3     1  UNL1        0.2333
     20 C          65.7429   92.1969   12.9288 C.2     1  UNL1        0.3159
     21 N          64.7129   91.1110   12.8300 N.2     1  UNL1       -0.0039
     22 C          63.8645   90.9917   11.5986 C.2     1  UNL1        0.3563
     23 N          64.0463   91.9584   10.4661 N.am    1  UNL1        0.0288
     24 N          66.5913   92.3162   14.1601 N.pl3   1  UNL1       -0.1888
     25 C          65.9447   92.4885   15.5025 C.3     1  UNL1        0.2343
     26 C          66.7930   92.6078   16.7338 C.3     1  UNL1        0.1929
     27 O          68.2879   92.5548   16.6227 O.3     1  UNL1       -0.3449
     28 C          68.9345   92.3825   15.2802 C.3     1  UNL1        0.1929
     29 C          68.0862   92.2632   14.0489 C.3     1  UNL1        0.2343
@<TRIPOS>BOND
     1    17    18    2
     2    18    19    1
     3    19    20    1
     4    20    24    1
     5    24    25    1
     6    25    26    1
     7    26    27    1
     8    27    28    1
     9    28    29    1
    10    20    21    2
    11    21    22    1
    12    22    16    1
    13    16     1    1
    14     1     2   ar
    15     2     3   ar
    16     3     4   ar
    17     4     5   ar
    18     5     6   ar
    19     6     7   ar
    20     7     8   ar
    21     8     9   ar
    22     9    10    1
    23    10    11    1
    24    11    12    1
    25    12    13    1
    26    13    14    1
    27    14    15    1
    28    22    23    2
    29    23    18    1
    30    29    24    1
    31     9     1   ar
    32    15    10    1
    33     8     3   ar
@<TRIPOS>MOLECULE
*****
 29 33 0 0 0
SMALL
GASTEIGER

@<TRIPOS>ATOM
      1 C          63.8343   88.9254   13.3142 C.ar    1  UNL1        0.1327
      2 N          62.8960   88.1576   12.4310 N.ar    1  UNL1       -0.2303
      3 C          62.5448   89.0273   11.2605 C.ar    1  UNL1        0.0983
      4 C          61.6615   88.7992   10.0699 C.ar    1  UNL1        0.0206
      5 C          61.4994   89.8766    9.0389 C.ar    1  UNL1        0.0016
      6 C          62.2207   91.1821    9.1986 C.ar    1  UNL1        0.0016
      7 C          63.1041   91.4102   10.3892 C.ar    1  UNL1        0.0188
      8 C          63.2661   90.3328   11.4201 C.ar    1  UNL1        0.0786
      9 N          64.0631   90.2698   12.6894 N.ar    1  UNL1       -0.3163
     10 C          64.9356   91.3598   13.2376 C.3     1  UNL1        0.0866
     11 C          65.4710   92.4226   12.3245 C.3     1  UNL1        0.0226
     12 C          66.3435   93.5126   12.8727 C.3     1  UNL1        0.0019
     13 C          66.6806   93.5399   14.3340 C.3     1  UNL1        0.0001
     14 C          66.1452   92.4772   15.2472 C.3     1  UNL1        0.0019
     15 C          65.2727   91.3871   14.6990 C.3     1  UNL1        0.0226
     16 C          64.4379   88.4351   14.5968 C.3     1  UNL1        0.1852
     17 O          62.2962   86.2378   18.7903 O.2     1  UNL1       -0.2422
     18 C          62.7944   86.1316   17.3795 C.2     1  UNL1        0.3644
     19 C          62.7201   84.8205   16.6545 C.3     1  UNL1        0.2333
     20 C          63.2184   84.7143   15.2437 C.2     1  UNL1        0.3159
     21 N          63.7909   85.9191   14.5578 N.2     1  UNL1       -0.0039
     22 C          63.8653   87.2302   15.2827 C.2     1  UNL1        0.3563
     23 N          63.3670   87.3365   16.6936 N.am    1  UNL1        0.0288
     24 N          63.1440   83.4031   14.5188 N.pl3   1  UNL1       -0.1888
     25 C          64.2165   83.0252   13.5405 C.3     1  UNL1        0.2343
     26 C          64.1422   81.7141   12.8156 C.3     1  UNL1        0.1929
     27 O          62.9954   80.7810   13.0690 O.3     1  UNL1       -0.3449
     28 C          61.9229   81.1590   14.0472 C.3     1  UNL1        0.1929
     29 C          61.9972   82.4700   14.7721 C.3     1  UNL1        0.2343
@<TRIPOS>BOND
     1    17    18    2
     2    18    19    1
     3    19    20    1
     4    20    24    1
     5    24    25    1
     6    25    26    1
     7    26    27    1
     8    27    28    1
     9    28    29    1
    10    20    21    2
    11    21    22    1
    12    22    16    1
    13    16     1    1
    14     1     2   ar
    15     2     3   ar
    16     3     4   ar
    17     4     5   ar
    18     5     6   ar
    19     6     7   ar
    20     7     8   ar
    21     8     9   ar
    22     9    10    1
    23    10    11    1
    24    11    12    1
    25    12    13    1
    26    13    14    1
    27    14    15    1
    28    22    23    2
    29    23    18    1
    30    29    24    1
    31     9     1   ar
    32    15    10    1
    33     8     3   ar
@<TRIPOS>MOLECULE
*****
 29 33 0 0 0
SMALL
GASTEIGER

@<TRIPOS>ATOM
      1 C          62.3192   86.9384   11.1865 C.ar    1  UNL1        0.1327
      2 N          61.3964   86.0283   10.4314 N.ar    1  UNL1       -0.2303
      3 C          60.6433   86.8563    9.4328 C.ar    1  UNL1        0.0983
      4 C          59.6002   86.4993    8.4158 C.ar    1  UNL1        0.0206
      5 C          59.0145   87.5641    7.5366 C.ar    1  UNL1        0.0016
      6 C          59.4719   88.9860    7.6745 C.ar    1  UNL1        0.0016
      7 C          60.5150   89.3431    8.6915 C.ar    1  UNL1        0.0188
      8 C          61.1007   88.2782    9.5707 C.ar    1  UNL1        0.0786
      9 N          62.1365   88.3289   10.6545 N.ar    1  UNL1       -0.3163
     10 C          62.8620   89.5550   11.1239 C.3     1  UNL1        0.0866
     11 C          63.2067   90.6418   10.1493 C.3     1  UNL1        0.0226
     12 C          63.9323   91.8678   10.6187 C.3     1  UNL1        0.0019
     13 C          64.3132   92.0071   12.0628 C.3     1  UNL1        0.0001
     14 C          63.9685   90.9203   13.0375 C.3     1  UNL1        0.0019
     15 C          63.2430   89.6942   12.5681 C.3     1  UNL1        0.0226
     16 C          63.2597   86.5298   12.2813 C.3     1  UNL1        0.1852
     17 O          62.4108   83.9797   16.7284 O.2     1  UNL1       -0.2422
     18 C          62.6137   83.9674   15.2422 C.2     1  UNL1        0.3644
     19 C          62.5951   82.6678   14.4934 C.3     1  UNL1        0.2333
     20 C          62.7980   82.6555   13.0073 C.2     1  UNL1        0.3159
     21 N          63.0196   83.9428   12.2699 N.2     1  UNL1       -0.0039
     22 C          63.0382   85.2425   13.0187 C.2     1  UNL1        0.3563
     23 N          62.8352   85.2548   14.5048 N.am    1  UNL1        0.0288
     24 N          62.7794   81.3559   12.2585 N.pl3   1  UNL1       -0.1888
     25 C          62.4746   80.0778   12.9821 C.3     1  UNL1        0.2343
     26 C          62.4560   78.7781   12.2334 C.3     1  UNL1        0.1929
     27 O          62.7422   78.7566   10.7611 O.3     1  UNL1       -0.3449
     28 C          63.0470   80.0347   10.0376 C.3     1  UNL1        0.1929
     29 C          63.0656   81.3343   10.7863 C.3     1  UNL1        0.2343
@<TRIPOS>BOND
     1    17    18    2
     2    18    19    1
     3    19    20    1
     4    20    24    1
     5    24    25    1
     6    25    26    1
     7    26    27    1
     8    27    28    1
     9    28    29    1
    10    20    21    2
    11    21    22    1
    12    22    16    1
    13    16     1    1
    14     1     2   ar
    15     2     3   ar
    16     3     4   ar
    17     4     5   ar
    18     5     6   ar
    19     6     7   ar
    20     7     8   ar
    21     8     9   ar
    22     9    10    1
    23    10    11    1
    24    11    12    1
    25    12    13    1
    26    13    14    1
    27    14    15    1
    28    22    23    2
    29    23    18    1
    30    29    24    1
    31     9     1   ar
    32    15    10    1
    33     8     3   ar
@<TRIPOS>MOLECULE
*****
 29 33 0 0 0
SMALL
GASTEIGER

@<TRIPOS>ATOM
      1 C          62.1051   88.7327   11.3641 C.ar    1  UNL1        0.1327
      2 N          61.2834   89.5870   10.4450 N.ar    1  UNL1       -0.2303
      3 C          60.6425   88.6901    9.4277 C.ar    1  UNL1        0.0983
      4 C          59.7263   88.9741    8.2745 C.ar    1  UNL1        0.0206
      5 C          59.2358   87.8494    7.4118 C.ar    1  UNL1        0.0016
      6 C          59.6615   86.4407    7.7022 C.ar    1  UNL1        0.0016
      7 C          60.5777   86.1567    8.8554 C.ar    1  UNL1        0.0188
      8 C          61.0682   87.2814    9.7182 C.ar    1  UNL1        0.0786
      9 N          61.9721   87.3077   10.9149 N.ar    1  UNL1       -0.3163
     10 C          62.6279   86.1179   11.5508 C.3     1  UNL1        0.0866
     11 C          62.7448   84.8303   10.7904 C.3     1  UNL1        0.0226
     12 C          63.4006   83.6405   11.4262 C.3     1  UNL1        0.0019
     13 C          63.9396   83.7384   12.8226 C.3     1  UNL1        0.0001
     14 C          63.8228   85.0260   13.5831 C.3     1  UNL1        0.0019
     15 C          63.1670   86.2158   12.9472 C.3     1  UNL1        0.0226
     16 C          62.9173   89.2180   12.5281 C.3     1  UNL1        0.1852
     17 O          64.5630   93.2999    9.7658 O.2     1  UNL1       -0.2422
     18 C          64.6696   92.4243   10.9791 C.2     1  UNL1        0.3644
     19 C          65.7055   92.7140   12.0244 C.3     1  UNL1        0.2333
     20 C          65.8121   91.8385   13.2377 C.2     1  UNL1        0.3159
     21 N          64.8827   90.6731   13.4056 N.2     1  UNL1       -0.0039
     22 C          63.8467   90.3833   12.3602 C.2     1  UNL1        0.3563
     23 N          63.7401   91.2589   11.1469 N.am    1  UNL1        0.0288
     24 N          66.8481   92.1282   14.2831 N.pl3   1  UNL1       -0.1888
     25 C          66.4283   92.4364   15.6898 C.3     1  UNL1        0.2343
     26 C          67.4642   92.7262   16.7352 C.3     1  UNL1        0.1929
     27 O          68.9199   92.7078   16.3739 O.3     1  UNL1       -0.3449
     28 C          69.3397   92.3997   14.9671 C.3     1  UNL1        0.1929
     29 C          68.3038   92.1099   13.9218 C.3     1  UNL1        0.2343
@<TRIPOS>BOND
     1    17    18    2
     2    18    19    1
     3    19    20    1
     4    20    24    1
     5    24    25    1
     6    25    26    1
     7    26    27    1
     8    27    28    1
     9    28    29    1
    10    20    21    2
    11    21    22    1
    12    22    16    1
    13    16     1    1
    14     1     2   ar
    15     2     3   ar
    16     3     4   ar
    17     4     5   ar
    18     5     6   ar
    19     6     7   ar
    20     7     8   ar
    21     8     9   ar
    22     9    10    1
    23    10    11    1
    24    11    12    1
    25    12    13    1
    26    13    14    1
    27    14    15    1
    28    22    23    2
    29    23    18    1
    30    29    24    1
    31     9     1   ar
    32    15    10    1
    33     8     3   ar
