@<TRIPOS>MOLECULE
*****
 27 29 0 0 0
SMALL
GASTEIGER

@<TRIPOS>ATOM
      1 C          59.1044   88.5246    7.4356 C.3     1  UNL1        0.0518
      2 C          60.0904   88.4817    8.5653 C.ar    1  UNL1        0.0563
      3 N          60.5189   89.7533    9.2355 N.ar    1  UNL1       -0.2524
      4 C          61.5047   89.7104   10.3652 C.ar    1  UNL1        0.0830
      5 C          62.0621   88.3958   10.8247 C.ar    1  UNL1        0.0686
      6 C          61.6336   87.1241   10.1545 C.ar    1  UNL1        0.0048
      7 C          60.6477   87.1671    9.0248 C.ar    1  UNL1        0.0072
      8 C          63.0110   88.6642   11.9550 C.2     1  UNL1        0.2508
      9 O          63.7934   87.6332   12.7131 O.2     1  UNL1       -0.2698
     10 N          63.0400   90.1448   12.1940 N.am    1  UNL1       -0.2650
     11 C          62.1092   90.7914   11.2115 C.3     1  UNL1        0.1400
     12 C          62.1909   85.8094   10.6140 C.ar    1  UNL1        0.0106
     13 C          61.8437   85.2821   11.9746 C.ar    1  UNL1        0.0017
     14 C          62.4010   83.9675   12.4342 C.ar    1  UNL1        0.0114
     15 C          63.3054   83.1802   11.5330 C.ar    1  UNL1        0.0585
     16 CL         63.8627   81.8656   11.9925 Cl      1  UNL1       -0.0822
     17 C          63.6526   83.7075   10.1723 C.ar    1  UNL1        0.0228
     18 C          63.0953   85.0222    9.7128 C.ar    1  UNL1        0.0585
     19 CL         63.4425   85.5495    8.3521 Cl      1  UNL1       -0.0822
     20 C          60.2191   85.8953    8.3546 C.3     1  UNL1        0.0934
     21 N          60.6683   85.5970    6.9548 N.3     1  UNL1       -0.3174
     22 H          60.2563   86.2750    6.3138 H       1  UNL1        0.1192
     23 H          60.3687   84.6574    6.6946 H       1  UNL1        0.1192
     24 C          63.8566   90.8542   13.2332 C.3     1  UNL1        0.1358
     25 C          63.5161   90.7036   14.6862 C.2     1  UNL1        0.0705
     26 O          62.5144   89.6745   15.1191 O.co2   1  UNL1       -0.5474
     27 O          64.1774   91.5822   15.7065 O.co2   1  UNL1       -0.5474
@<TRIPOS>UNITY_ATOM_ATTR
26 1
charge -1
@<TRIPOS>BOND
     1     1     2    1
     2     2     3   ar
     3     3     4   ar
     4     4     5   ar
     5     5     6   ar
     6     6    12    1
     7    12    13   ar
     8    13    14   ar
     9    14    15   ar
    10    15    16    1
    11    15    17   ar
    12    17    18   ar
    13    18    19    1
    14     6     7   ar
    15     7    20    1
    16    20    21    1
    17     5     8    1
    18     8     9    2
    19     8    10   am
    20    10    24    1
    21    24    25    1
    22    25    26   ar
    23    25    27   ar
    24    10    11    1
    25     7     2   ar
    26    11     4    1
    27    18    12   ar
    28    21    22    1
    29    21    23    1
@<TRIPOS>MOLECULE
*****
 27 29 0 0 0
SMALL
GASTEIGER

@<TRIPOS>ATOM
      1 C          64.2229   90.8030   13.7104 C.3     1  UNL1        0.0518
      2 C          63.9037   89.3570   13.4708 C.ar    1  UNL1        0.0563
      3 N          64.3372   88.3190   14.4631 N.ar    1  UNL1       -0.2524
      4 C          64.0181   86.8731   14.2235 C.ar    1  UNL1        0.0830
      5 C          63.2655   86.4651   12.9918 C.ar    1  UNL1        0.0686
      6 C          62.8320   87.5032   11.9996 C.ar    1  UNL1        0.0048
      7 C          63.1512   88.9492   12.2392 C.ar    1  UNL1        0.0072
      8 C          63.0958   84.9751   13.0244 C.2     1  UNL1        0.2508
      9 O          62.4004   84.1440   11.9872 O.2     1  UNL1       -0.2698
     10 N          63.7435   84.4622   14.2764 N.am    1  UNL1       -0.2650
     11 C          64.3135   85.6351   15.0175 C.3     1  UNL1        0.1400
     12 C          62.0794   87.0953   10.7678 C.ar    1  UNL1        0.0106
     13 C          62.7967   86.4085    9.6437 C.ar    1  UNL1        0.0017
     14 C          62.0442   86.0006    8.4118 C.ar    1  UNL1        0.0114
     15 C          60.5743   86.2797    8.3042 C.ar    1  UNL1        0.0585
     16 CL         59.8218   85.8718    7.0724 Cl      1  UNL1       -0.0822
     17 C          59.8570   86.9665    9.4283 C.ar    1  UNL1        0.0228
     18 C          60.6096   87.3744   10.6602 C.ar    1  UNL1        0.0585
     19 CL         59.8922   88.0613   11.7843 Cl      1  UNL1       -0.0822
     20 C          62.7177   89.9873   11.2469 C.3     1  UNL1        0.0934
     21 N          61.5162   90.8397   11.5297 N.3     1  UNL1       -0.3174
     22 H          60.6802   90.2555   11.5419 H       1  UNL1        0.1192
     23 H          61.4244   91.5497   10.8032 H       1  UNL1        0.1192
     24 C          63.8095   83.0280   14.7109 C.3     1  UNL1        0.1358
     25 C          62.9741   81.9944   14.0155 C.2     1  UNL1        0.0705
     26 O          63.5686   81.1650   12.9162 O.co2   1  UNL1       -0.5474
     27 O          61.5440   81.7902   14.4195 O.co2   1  UNL1       -0.5474
@<TRIPOS>UNITY_ATOM_ATTR
26 1
charge -1
@<TRIPOS>BOND
     1     1     2    1
     2     2     3   ar
     3     3     4   ar
     4     4     5   ar
     5     5     6   ar
     6     6    12    1
     7    12    13   ar
     8    13    14   ar
     9    14    15   ar
    10    15    16    1
    11    15    17   ar
    12    17    18   ar
    13    18    19    1
    14     6     7   ar
    15     7    20    1
    16    20    21    1
    17     5     8    1
    18     8     9    2
    19     8    10   am
    20    10    24    1
    21    24    25    1
    22    25    26   ar
    23    25    27   ar
    24    10    11    1
    25     7     2   ar
    26    11     4    1
    27    18    12   ar
    28    21    22    1
    29    21    23    1
@<TRIPOS>MOLECULE
*****
 27 29 0 0 0
SMALL
GASTEIGER

@<TRIPOS>ATOM
      1 C          66.8781   93.3337   12.8535 C.3     1  UNL1        0.0518
      2 C          65.7657   92.3505   12.6386 C.ar    1  UNL1        0.0563
      3 N          64.9635   92.3909   11.3718 N.ar    1  UNL1       -0.2524
      4 C          63.8511   91.4078   11.1569 C.ar    1  UNL1        0.0830
      5 C          63.5410   90.3843   12.2088 C.ar    1  UNL1        0.0686
      6 C          64.3433   90.3440   13.4756 C.ar    1  UNL1        0.0048
      7 C          65.4557   91.3272   13.6904 C.ar    1  UNL1        0.0072
      8 C          62.3939   89.5504   11.7203 C.2     1  UNL1        0.2508
      9 O          61.7574   88.4089   12.4564 O.2     1  UNL1       -0.2698
     10 N          61.9950   90.0584   10.3665 N.am    1  UNL1       -0.2650
     11 C          62.8957   91.2064   10.0183 C.3     1  UNL1        0.1400
     12 C          64.0332   89.3206   14.5275 C.ar    1  UNL1        0.0106
     13 C          64.3540   87.8754   14.2855 C.ar    1  UNL1        0.0017
     14 C          64.0440   86.8520   15.3374 C.ar    1  UNL1        0.0114
     15 C          63.4132   87.2738   16.6312 C.ar    1  UNL1        0.0585
     16 CL         63.1032   86.2503   17.6831 Cl      1  UNL1       -0.0822
     17 C          63.0924   88.7189   16.8733 C.ar    1  UNL1        0.0228
     18 C          63.4024   89.7424   15.8214 C.ar    1  UNL1        0.0585
     19 CL         63.0816   91.1875   16.0634 Cl      1  UNL1       -0.0822
     20 C          66.2580   91.2868   14.9573 C.3     1  UNL1        0.0934
     21 N          66.2085   92.4415   15.9134 N.3     1  UNL1       -0.3174
     22 H          66.6230   93.2640   15.4750 H       1  UNL1        0.1192
     23 H          66.7308   92.2066   16.7575 H       1  UNL1        0.1192
     24 C          60.8896   89.5142    9.5110 C.3     1  UNL1        0.1358
     25 C          60.8224   88.0446    9.2179 C.2     1  UNL1        0.0705
     26 O          59.5020   87.3994    8.9175 O.co2   1  UNL1       -0.5474
     27 O          62.0756   87.2203    9.2251 O.co2   1  UNL1       -0.5474
@<TRIPOS>UNITY_ATOM_ATTR
26 1
charge -1
@<TRIPOS>BOND
     1     1     2    1
     2     2     3   ar
     3     3     4   ar
     4     4     5   ar
     5     5     6   ar
     6     6    12    1
     7    12    13   ar
     8    13    14   ar
     9    14    15   ar
    10    15    16    1
    11    15    17   ar
    12    17    18   ar
    13    18    19    1
    14     6     7   ar
    15     7    20    1
    16    20    21    1
    17     5     8    1
    18     8     9    2
    19     8    10   am
    20    10    24    1
    21    24    25    1
    22    25    26   ar
    23    25    27   ar
    24    10    11    1
    25     7     2   ar
    26    11     4    1
    27    18    12   ar
    28    21    22    1
    29    21    23    1
@<TRIPOS>MOLECULE
*****
 27 29 0 0 0
SMALL
GASTEIGER

@<TRIPOS>ATOM
      1 C          64.5540   89.3141   14.7143 C.3     1  UNL1        0.0518
      2 C          63.9324   88.3889   13.7104 C.ar    1  UNL1        0.0563
      3 N          63.2821   88.9461   12.4789 N.ar    1  UNL1       -0.2524
      4 C          62.6605   88.0210   11.4750 C.ar    1  UNL1        0.0830
      5 C          62.6893   86.5386   11.7026 C.ar    1  UNL1        0.0686
      6 C          63.3396   85.9814   12.9341 C.ar    1  UNL1        0.0048
      7 C          63.9612   86.9066   13.9380 C.ar    1  UNL1        0.0072
      8 C          61.9998   85.8785   10.5455 C.2     1  UNL1        0.2508
      9 O          61.8002   84.4031   10.3632 O.2     1  UNL1       -0.2698
     10 N          61.5449   86.9529    9.6028 N.am    1  UNL1       -0.2650
     11 C          61.9533   88.2771   10.1773 C.3     1  UNL1        0.1400
     12 C          63.3684   84.4990   13.1617 C.ar    1  UNL1        0.0106
     13 C          64.2700   83.6307   12.3352 C.ar    1  UNL1        0.0017
     14 C          64.2988   82.1484   12.5628 C.ar    1  UNL1        0.0114
     15 C          63.4261   81.5344   13.6169 C.ar    1  UNL1        0.0585
     16 CL         63.4550   80.0520   13.8445 Cl      1  UNL1       -0.0822
     17 C          62.5245   82.4027   14.4435 C.ar    1  UNL1        0.0228
     18 C          62.4957   83.8850   14.2159 C.ar    1  UNL1        0.0585
     19 CL         61.5941   84.7533   15.0425 Cl      1  UNL1       -0.0822
     20 C          64.6115   86.3493   15.1695 C.3     1  UNL1        0.0934
     21 N          65.8834   85.5624   15.0553 N.3     1  UNL1       -0.3174
     22 H          65.7023   84.6948   14.5505 H       1  UNL1        0.1192
     23 H          66.2343   85.3460   15.9883 H       1  UNL1        0.1192
     24 C          60.8106   86.7406    8.3122 C.3     1  UNL1        0.1358
     25 C          59.5700   87.5302    8.0165 C.2     1  UNL1        0.0705
     26 O          58.2388   86.8414    7.9572 O.co2   1  UNL1       -0.5474
     27 O          59.6607   89.0087    7.7799 O.co2   1  UNL1       -0.5474
@<TRIPOS>UNITY_ATOM_ATTR
26 1
charge -1
@<TRIPOS>BOND
     1     1     2    1
     2     2     3   ar
     3     3     4   ar
     4     4     5   ar
     5     5     6   ar
     6     6    12    1
     7    12    13   ar
     8    13    14   ar
     9    14    15   ar
    10    15    16    1
    11    15    17   ar
    12    17    18   ar
    13    18    19    1
    14     6     7   ar
    15     7    20    1
    16    20    21    1
    17     5     8    1
    18     8     9    2
    19     8    10   am
    20    10    24    1
    21    24    25    1
    22    25    26   ar
    23    25    27   ar
    24    10    11    1
    25     7     2   ar
    26    11     4    1
    27    18    12   ar
    28    21    22    1
    29    21    23    1
@<TRIPOS>MOLECULE
*****
 27 29 0 0 0
SMALL
GASTEIGER

@<TRIPOS>ATOM
      1 C          63.8340   81.6112   13.8488 C.3     1  UNL1        0.0518
      2 C          63.7231   83.0864   13.6005 C.ar    1  UNL1        0.0563
      3 N          64.3382   84.0574   14.5642 N.ar    1  UNL1       -0.2524
      4 C          64.2274   85.5325   14.3160 C.ar    1  UNL1        0.0830
      5 C          63.5013   86.0367   13.1040 C.ar    1  UNL1        0.0686
      6 C          62.8862   85.0657   12.1403 C.ar    1  UNL1        0.0048
      7 C          62.9971   83.5905   12.3886 C.ar    1  UNL1        0.0072
      8 C          63.5539   87.5357   13.1224 C.2     1  UNL1        0.2508
      9 O          62.9533   88.4515   12.0974 O.2     1  UNL1       -0.2698
     10 N          64.3124   87.9579   14.3456 N.am    1  UNL1       -0.2650
     11 C          64.7286   86.7199   15.0833 C.3     1  UNL1        0.1400
     12 C          62.1601   85.5698   10.9284 C.ar    1  UNL1        0.0106
     13 C          60.9232   86.4032   11.0879 C.ar    1  UNL1        0.0017
     14 C          60.1971   86.9073    9.8760 C.ar    1  UNL1        0.0114
     15 C          60.7080   86.5780    8.5047 C.ar    1  UNL1        0.0585
     16 CL         59.9819   87.0821    7.2928 Cl      1  UNL1       -0.0822
     17 C          61.9449   85.7446    8.3452 C.ar    1  UNL1        0.0228
     18 C          62.6710   85.2405    9.5571 C.ar    1  UNL1        0.0585
     19 CL         63.9080   84.4071    9.3976 Cl      1  UNL1       -0.0822
     20 C          62.3819   82.6194   11.4249 C.3     1  UNL1        0.0934
     21 N          63.2288   81.5598   10.7846 N.3     1  UNL1       -0.3174
     22 H          63.9151   81.9981   10.1705 H       1  UNL1        0.1192
     23 H          62.6358   80.9338   10.2398 H       1  UNL1        0.1192
     24 C          64.6035   89.3702   14.7587 C.3     1  UNL1        0.1358
     25 C          63.5901   90.1449   15.5478 C.2     1  UNL1        0.0705
     26 O          63.8021   91.6063   15.8112 O.co2   1  UNL1       -0.5474
     27 O          62.3645   89.4581   16.0737 O.co2   1  UNL1       -0.5474
@<TRIPOS>UNITY_ATOM_ATTR
26 1
charge -1
@<TRIPOS>BOND
     1     1     2    1
     2     2     3   ar
     3     3     4   ar
     4     4     5   ar
     5     5     6   ar
     6     6    12    1
     7    12    13   ar
     8    13    14   ar
     9    14    15   ar
    10    15    16    1
    11    15    17   ar
    12    17    18   ar
    13    18    19    1
    14     6     7   ar
    15     7    20    1
    16    20    21    1
    17     5     8    1
    18     8     9    2
    19     8    10   am
    20    10    24    1
    21    24    25    1
    22    25    26   ar
    23    25    27   ar
    24    10    11    1
    25     7     2   ar
    26    11     4    1
    27    18    12   ar
    28    21    22    1
    29    21    23    1
@<TRIPOS>MOLECULE
*****
 27 29 0 0 0
SMALL
GASTEIGER

@<TRIPOS>ATOM
      1 C          64.0309   84.4406   14.9411 C.3     1  UNL1        0.0518
      2 C          63.7946   85.6820   14.1329 C.ar    1  UNL1        0.0563
      3 N          64.3562   86.9946   14.5929 N.ar    1  UNL1       -0.2524
      4 C          64.1199   88.2360   13.7848 C.ar    1  UNL1        0.0830
      5 C          63.3220   88.1648   12.5165 C.ar    1  UNL1        0.0686
      6 C          62.7604   86.8522   12.0565 C.ar    1  UNL1        0.0048
      7 C          62.9968   85.6108   12.8647 C.ar    1  UNL1        0.0072
      8 C          63.2541   89.5451   11.9335 C.2     1  UNL1        0.2508
      9 O          62.5533   89.9330   10.6652 O.2     1  UNL1       -0.2698
     10 N          64.0099   90.4695   12.8413 N.am    1  UNL1       -0.2650
     11 C          64.5450   89.6604   13.9855 C.3     1  UNL1        0.1400
     12 C          61.9626   86.7808   10.7883 C.ar    1  UNL1        0.0106
     13 C          62.5377   86.1081    9.5772 C.ar    1  UNL1        0.0017
     14 C          61.7399   86.0368    8.3090 C.ar    1  UNL1        0.0114
     15 C          60.3670   86.6381    8.2519 C.ar    1  UNL1        0.0585
     16 CL         59.5692   86.5668    6.9836 Cl      1  UNL1       -0.0822
     17 C          59.7918   87.3108    9.4629 C.ar    1  UNL1        0.0228
     18 C          60.5896   87.3822   10.7311 C.ar    1  UNL1        0.0585
     19 CL         60.0144   88.0549   11.9422 Cl      1  UNL1       -0.0822
     20 C          62.4352   84.2981   12.4047 C.3     1  UNL1        0.0934
     21 N          63.3023   83.3346   11.6498 N.3     1  UNL1       -0.3174
     22 H          63.5536   83.7384   10.7475 H       1  UNL1        0.1192
     23 H          62.7935   82.4629   11.5024 H       1  UNL1        0.1192
     24 C          64.1978   91.9440   12.6403 C.3     1  UNL1        0.1358
     25 C          65.5583   92.5553   12.7991 C.2     1  UNL1        0.0705
     26 O          66.5523   92.4743   11.6787 O.co2   1  UNL1       -0.5474
     27 O          65.9248   93.2477   14.0783 O.co2   1  UNL1       -0.5474
@<TRIPOS>UNITY_ATOM_ATTR
26 1
charge -1
@<TRIPOS>BOND
     1     1     2    1
     2     2     3   ar
     3     3     4   ar
     4     4     5   ar
     5     5     6   ar
     6     6    12    1
     7    12    13   ar
     8    13    14   ar
     9    14    15   ar
    10    15    16    1
    11    15    17   ar
    12    17    18   ar
    13    18    19    1
    14     6     7   ar
    15     7    20    1
    16    20    21    1
    17     5     8    1
    18     8     9    2
    19     8    10   am
    20    10    24    1
    21    24    25    1
    22    25    26   ar
    23    25    27   ar
    24    10    11    1
    25     7     2   ar
    26    11     4    1
    27    18    12   ar
    28    21    22    1
    29    21    23    1
@<TRIPOS>MOLECULE
*****
 27 29 0 0 0
SMALL
GASTEIGER

@<TRIPOS>ATOM
      1 C          64.6214   88.8856   14.8419 C.3     1  UNL1        0.0518
      2 C          63.9665   88.0085   13.8163 C.ar    1  UNL1        0.0563
      3 N          63.4092   88.6105   12.5605 N.ar    1  UNL1       -0.2524
      4 C          62.7543   87.7335   11.5349 C.ar    1  UNL1        0.0830
      5 C          62.6567   86.2544   11.7650 C.ar    1  UNL1        0.0686
      6 C          63.2140   85.6524   13.0207 C.ar    1  UNL1        0.0048
      7 C          63.8689   86.5295   14.0464 C.ar    1  UNL1        0.0072
      8 C          61.9610   85.6463   10.5834 C.2     1  UNL1        0.2508
      9 O          61.6520   84.1906   10.3952 O.2     1  UNL1       -0.2698
     10 N          61.6286   86.7496    9.6230 N.am    1  UNL1       -0.2650
     11 C          62.1188   88.0395   10.2110 C.3     1  UNL1        0.1400
     12 C          63.1165   84.1733   13.2509 C.ar    1  UNL1        0.0106
     13 C          62.1570   83.6347   14.2704 C.ar    1  UNL1        0.0017
     14 C          62.0594   82.1557   14.5006 C.ar    1  UNL1        0.0114
     15 C          62.9214   81.2154   13.7114 C.ar    1  UNL1        0.0585
     16 CL         62.8238   79.7364   13.9417 Cl      1  UNL1       -0.0822
     17 C          63.8809   81.7540   12.6920 C.ar    1  UNL1        0.0228
     18 C          63.9785   83.2331   12.4618 C.ar    1  UNL1        0.0585
     19 CL         64.9380   83.7717   11.4423 Cl      1  UNL1       -0.0822
     20 C          64.4263   85.9275   15.3023 C.3     1  UNL1        0.0934
     21 N          63.5852   85.8681   16.5429 N.3     1  UNL1       -0.3174
     22 H          63.4012   86.8149   16.8746 H       1  UNL1        0.1192
     23 H          64.0809   85.3452   17.2649 H       1  UNL1        0.1192
     24 C          60.9287   86.5908    8.3058 C.3     1  UNL1        0.1358
     25 C          61.3150   85.4748    7.3810 C.2     1  UNL1        0.0705
     26 O          62.7498   85.0504    7.2760 O.co2   1  UNL1       -0.5474
     27 O          60.2664   84.7832    6.5611 O.co2   1  UNL1       -0.5474
@<TRIPOS>UNITY_ATOM_ATTR
26 1
charge -1
@<TRIPOS>BOND
     1     1     2    1
     2     2     3   ar
     3     3     4   ar
     4     4     5   ar
     5     5     6   ar
     6     6    12    1
     7    12    13   ar
     8    13    14   ar
     9    14    15   ar
    10    15    16    1
    11    15    17   ar
    12    17    18   ar
    13    18    19    1
    14     6     7   ar
    15     7    20    1
    16    20    21    1
    17     5     8    1
    18     8     9    2
    19     8    10   am
    20    10    24    1
    21    24    25    1
    22    25    26   ar
    23    25    27   ar
    24    10    11    1
    25     7     2   ar
    26    11     4    1
    27    18    12   ar
    28    21    22    1
    29    21    23    1
@<TRIPOS>MOLECULE
*****
 27 29 0 0 0
SMALL
GASTEIGER

@<TRIPOS>ATOM
      1 C          60.8499   89.1455    9.2941 C.3     1  UNL1        0.0518
      2 C          61.6561   88.6039   10.4374 C.ar    1  UNL1        0.0563
      3 N          61.7320   87.1235   10.6666 N.ar    1  UNL1       -0.2524
      4 C          62.5380   86.5819   11.8098 C.ar    1  UNL1        0.0830
      5 C          63.2682   87.5208   12.7239 C.ar    1  UNL1        0.0686
      6 C          63.1923   89.0012   12.4947 C.ar    1  UNL1        0.0048
      7 C          62.3862   89.5428   11.3514 C.ar    1  UNL1        0.0072
      8 C          63.9781   86.7007   13.7599 C.2     1  UNL1        0.2508
      9 O          64.8299   87.2329   14.8740 O.2     1  UNL1       -0.2698
     10 N          63.6867   85.2550   13.4862 N.am    1  UNL1       -0.2650
     11 C          62.7967   85.1816   12.2810 C.3     1  UNL1        0.1400
     12 C          63.9224   89.9402   13.4087 C.ar    1  UNL1        0.0106
     13 C          65.1418   90.6649   12.9209 C.ar    1  UNL1        0.0017
     14 C          65.8720   91.6038   13.8348 C.ar    1  UNL1        0.0114
     15 C          65.3827   91.8180   15.2364 C.ar    1  UNL1        0.0585
     16 CL         66.1129   92.7570   16.1503 Cl      1  UNL1       -0.0822
     17 C          64.1633   91.0933   15.7242 C.ar    1  UNL1        0.0228
     18 C          63.4332   90.1544   14.8103 C.ar    1  UNL1        0.0585
     19 CL         62.2138   89.4297   15.2981 Cl      1  UNL1       -0.0822
     20 C          62.3102   91.0233   11.1221 C.3     1  UNL1        0.0934
     21 N          63.1099   91.6537   10.0207 N.3     1  UNL1       -0.3174
     22 H          64.1045   91.5639   10.2284 H       1  UNL1        0.1192
     23 H          62.8660   92.6412    9.9458 H       1  UNL1        0.1192
     24 C          64.1959   84.0876   14.2786 C.3     1  UNL1        0.1358
     25 C          63.8787   82.6884   13.8408 C.2     1  UNL1        0.0705
     26 O          64.5109   82.1289   12.6009 O.co2   1  UNL1       -0.5474
     27 O          62.9293   81.8486   14.6430 O.co2   1  UNL1       -0.5474
@<TRIPOS>UNITY_ATOM_ATTR
26 1
charge -1
@<TRIPOS>BOND
     1     1     2    1
     2     2     3   ar
     3     3     4   ar
     4     4     5   ar
     5     5     6   ar
     6     6    12    1
     7    12    13   ar
     8    13    14   ar
     9    14    15   ar
    10    15    16    1
    11    15    17   ar
    12    17    18   ar
    13    18    19    1
    14     6     7   ar
    15     7    20    1
    16    20    21    1
    17     5     8    1
    18     8     9    2
    19     8    10   am
    20    10    24    1
    21    24    25    1
    22    25    26   ar
    23    25    27   ar
    24    10    11    1
    25     7     2   ar
    26    11     4    1
    27    18    12   ar
    28    21    22    1
    29    21    23    1
@<TRIPOS>MOLECULE
*****
 27 29 0 0 0
SMALL
GASTEIGER

@<TRIPOS>ATOM
      1 C          63.3921   80.6511   11.2061 C.3     1  UNL1        0.0518
      2 C          63.1792   82.1255   11.3829 C.ar    1  UNL1        0.0563
      3 N          62.9854   83.0043   10.1829 N.ar    1  UNL1       -0.2524
      4 C          62.7724   84.4786   10.3595 C.ar    1  UNL1        0.0830
      5 C          62.7533   85.0740   11.7362 C.ar    1  UNL1        0.0686
      6 C          62.9472   84.1951   12.9362 C.ar    1  UNL1        0.0048
      7 C          63.1601   82.7208   12.7594 C.ar    1  UNL1        0.0072
      8 C          62.5241   86.5500   11.5997 C.2     1  UNL1        0.2508
      9 O          62.4334   87.5361   12.7264 O.2     1  UNL1       -0.2698
     10 N          62.4015   86.8669   10.1387 N.am    1  UNL1       -0.2650
     11 C          62.5550   85.5867    9.3722 C.3     1  UNL1        0.1400
     12 C          62.9281   84.7904   14.3129 C.ar    1  UNL1        0.0106
     13 C          61.6359   84.8935   15.0675 C.ar    1  UNL1        0.0017
     14 C          61.6167   85.4888   16.4442 C.ar    1  UNL1        0.0114
     15 C          62.8898   85.9810   17.0662 C.ar    1  UNL1        0.0585
     16 CL         62.8707   86.5763   18.4428 Cl      1  UNL1       -0.0822
     17 C          64.1820   85.8780   16.3115 C.ar    1  UNL1        0.0228
     18 C          64.2012   85.2827   14.9348 C.ar    1  UNL1        0.0585
     19 CL         65.4934   85.1796   14.1802 Cl      1  UNL1       -0.0822
     20 C          63.3540   81.8419   13.9595 C.3     1  UNL1        0.0934
     21 N          62.1630   81.2829   14.6800 N.3     1  UNL1       -0.3174
     22 H          61.6371   82.0443   15.1092 H       1  UNL1        0.1192
     23 H          62.4762   80.6358   15.4036 H       1  UNL1        0.1192
     24 C          62.1667   88.2255    9.5478 C.3     1  UNL1        0.1358
     25 C          60.7859   88.8114    9.5398 C.2     1  UNL1        0.0705
     26 O          60.1333   89.2114   10.8298 O.co2   1  UNL1       -0.5474
     27 O          60.0576   88.9973    8.2417 O.co2   1  UNL1       -0.5474
@<TRIPOS>UNITY_ATOM_ATTR
26 1
charge -1
@<TRIPOS>BOND
     1     1     2    1
     2     2     3   ar
     3     3     4   ar
     4     4     5   ar
     5     5     6   ar
     6     6    12    1
     7    12    13   ar
     8    13    14   ar
     9    14    15   ar
    10    15    16    1
    11    15    17   ar
    12    17    18   ar
    13    18    19    1
    14     6     7   ar
    15     7    20    1
    16    20    21    1
    17     5     8    1
    18     8     9    2
    19     8    10   am
    20    10    24    1
    21    24    25    1
    22    25    26   ar
    23    25    27   ar
    24    10    11    1
    25     7     2   ar
    26    11     4    1
    27    18    12   ar
    28    21    22    1
    29    21    23    1
