@<TRIPOS>MOLECULE
*****
 35 38 0 0 0
SMALL
GASTEIGER

@<TRIPOS>ATOM
      1 C          63.2320   85.3878   12.7569 C.3     1  UNL1        0.3254
      2 F          62.1782   84.4668   12.2170 F       1  UNL1       -0.1949
      3 F          64.1501   86.5381   13.0464 F       1  UNL1       -0.1949
      4 C          62.5587   86.1946   11.6864 C.ar    1  UNL1        0.1218
      5 C          61.9631   85.5084   10.4930 C.ar    1  UNL1        0.0208
      6 C          61.2897   86.3152    9.4225 C.ar    1  UNL1        0.0112
      7 C          61.2119   87.8081    9.5456 C.ar    1  UNL1        0.0611
      8 C          61.8076   88.4942   10.7392 C.ar    1  UNL1        0.1068
      9 N          62.4809   87.6875   11.8096 N.ar    1  UNL1       -0.2421
     10 C          60.5386   88.6149    8.4753 C.1     1  UNL1       -0.0582
     11 C          59.8653   89.4216    7.4049 C.1     1  UNL1       -0.0597
     12 C          59.1919   90.2285    6.3346 C.ar    1  UNL1        0.0428
     13 C          57.6998   90.1835    6.1883 C.ar    1  UNL1        0.0083
     14 C          57.0265   90.9903    5.1180 C.ar    1  UNL1        0.0015
     15 C          57.8453   91.8421    4.1939 C.ar    1  UNL1        0.0114
     16 C          59.3374   91.8871    4.3401 C.ar    1  UNL1        0.0583
     17 CL         60.1563   92.7389    3.4161 Cl      1  UNL1       -0.0822
     18 C          60.0107   91.0803    5.4105 C.ar    1  UNL1        0.0196
     19 O          64.5786   83.7743   14.8976 O.3     1  UNL1       -0.3755
     20 C          63.9053   84.5810   13.8272 C.3     1  UNL1        0.1932
     21 H          64.6590   84.3088   15.7031 H       1  UNL1        0.2110
     22 C          63.6038   83.3226   13.0685 C.ar    1  UNL1        0.0368
     23 C          64.2922   83.0503   11.7639 C.ar    1  UNL1        0.0028
     24 C          63.9907   81.7920   11.0052 C.ar    1  UNL1        0.0295
     25 C          63.0009   80.8060   11.5510 C.ar    1  UNL1        0.1424
     26 F          62.6993   79.5476   10.7923 F       1  UNL1       -0.2041
     27 C          62.3125   81.0783   12.8556 C.ar    1  UNL1        0.0590
     28 C          62.6140   82.3367   13.6144 C.ar    1  UNL1        0.1408
     29 F          61.9256   82.6090   14.9190 F       1  UNL1       -0.2043
     30 C          64.2069   85.8393   14.5860 C.3     1  UNL1        0.1679
     31 N          63.4226   86.1778   15.8190 N.ar    1  UNL1       -0.2078
     32 C          63.4600   87.4832   16.5570 C.ar    1  UNL1        0.2216
     33 N          62.5238   87.3825   17.7247 N.ar    1  UNL1       -0.1048
     34 N          61.9078   86.0149   17.7083 N.ar    1  UNL1       -0.0226
     35 N          62.4633   85.2704   16.5305 N.ar    1  UNL1       -0.0428
@<TRIPOS>BOND
     1    19    20    1
     2    20    30    1
     3    30    31    1
     4    31    32   ar
     5    32    33   ar
     6    33    34   ar
     7    34    35   ar
     8    20    22    1
     9    22    23   ar
    10    23    24   ar
    11    24    25   ar
    12    25    26    1
    13    25    27   ar
    14    27    28   ar
    15    28    29    1
    16    20     1    1
    17     1     2    1
    18     1     3    1
    19     1     4    1
    20     4     5   ar
    21     5     6   ar
    22     6     7   ar
    23     7    10    1
    24    10    11    3
    25    11    12    1
    26    12    13   ar
    27    13    14   ar
    28    14    15   ar
    29    15    16   ar
    30    16    17    1
    31    16    18   ar
    32     7     8   ar
    33     8     9   ar
    34    35    31   ar
    35    28    22   ar
    36     9     4   ar
    37    18    12   ar
    38    19    21    1
@<TRIPOS>MOLECULE
*****
 35 38 0 0 0
SMALL
GASTEIGER

@<TRIPOS>ATOM
      1 C          63.1175   84.7022   12.3296 C.3     1  UNL1        0.3254
      2 F          61.8722   85.1621   13.0280 F       1  UNL1       -0.1949
      3 F          64.2335   84.4501   11.3596 F       1  UNL1       -0.1949
      4 C          62.4461   85.5921   11.3259 C.ar    1  UNL1        0.1218
      5 C          62.7229   85.4146    9.8624 C.ar    1  UNL1        0.0208
      6 C          62.0515   86.3045    8.8588 C.ar    1  UNL1        0.0112
      7 C          61.1034   87.3720    9.3187 C.ar    1  UNL1        0.0611
      8 C          60.8266   87.5495   10.7822 C.ar    1  UNL1        0.1068
      9 N          61.4980   86.6596   11.7858 N.ar    1  UNL1       -0.2421
     10 C          60.4320   88.2619    8.3151 C.1     1  UNL1       -0.0582
     11 C          59.7606   89.1519    7.3115 C.1     1  UNL1       -0.0597
     12 C          59.0892   90.0419    6.3079 C.ar    1  UNL1        0.0428
     13 C          57.5932   90.0557    6.2000 C.ar    1  UNL1        0.0083
     14 C          56.9218   90.9456    5.1965 C.ar    1  UNL1        0.0015
     15 C          57.7464   91.8218    4.3007 C.ar    1  UNL1        0.0114
     16 C          59.2425   91.8079    4.4086 C.ar    1  UNL1        0.0583
     17 CL         60.0671   92.6841    3.5128 Cl      1  UNL1       -0.0822
     18 C          59.9138   90.9180    5.4121 C.ar    1  UNL1        0.0196
     19 O          64.4601   82.9224   14.3369 O.3     1  UNL1       -0.3755
     20 C          63.7888   83.8123   13.3332 C.3     1  UNL1        0.1932
     21 H          64.9391   82.2170   13.8743 H       1  UNL1        0.2110
     22 C          63.6353   84.8763   14.3794 C.ar    1  UNL1        0.0368
     23 C          64.3526   86.1850   14.2289 C.ar    1  UNL1        0.0028
     24 C          64.1991   87.2490   15.2750 C.ar    1  UNL1        0.0295
     25 C          63.3284   87.0042   16.4716 C.ar    1  UNL1        0.1424
     26 F          63.1749   88.0682   17.5178 F       1  UNL1       -0.2041
     27 C          62.6111   85.6955   16.6221 C.ar    1  UNL1        0.0590
     28 C          62.7646   84.6315   15.5760 C.ar    1  UNL1        0.1408
     29 F          62.0473   83.3227   15.7265 F       1  UNL1       -0.2043
     30 C          63.9424   82.7483   12.2872 C.3     1  UNL1        0.1679
     31 N          63.2629   81.4223   12.4607 N.ar    1  UNL1       -0.2078
     32 C          63.1074   80.3666   11.4065 C.ar    1  UNL1        0.2216
     33 N          62.3680   79.2111   12.0131 N.ar    1  UNL1       -0.1048
     34 N          62.0665   79.5526   13.4422 N.ar    1  UNL1       -0.0226
     35 N          62.6196   80.9192   13.7188 N.ar    1  UNL1       -0.0428
@<TRIPOS>BOND
     1    19    20    1
     2    20    30    1
     3    30    31    1
     4    31    32   ar
     5    32    33   ar
     6    33    34   ar
     7    34    35   ar
     8    20    22    1
     9    22    23   ar
    10    23    24   ar
    11    24    25   ar
    12    25    26    1
    13    25    27   ar
    14    27    28   ar
    15    28    29    1
    16    20     1    1
    17     1     2    1
    18     1     3    1
    19     1     4    1
    20     4     5   ar
    21     5     6   ar
    22     6     7   ar
    23     7    10    1
    24    10    11    3
    25    11    12    1
    26    12    13   ar
    27    13    14   ar
    28    14    15   ar
    29    15    16   ar
    30    16    17    1
    31    16    18   ar
    32     7     8   ar
    33     8     9   ar
    34    35    31   ar
    35    28    22   ar
    36     9     4   ar
    37    18    12   ar
    38    19    21    1
@<TRIPOS>MOLECULE
*****
 35 38 0 0 0
SMALL
GASTEIGER

@<TRIPOS>ATOM
      1 C          63.3044   84.6061   12.5203 C.3     1  UNL1        0.3254
      2 F          61.8637   84.1885   12.5211 F       1  UNL1       -0.1949
      3 F          64.6301   85.2598   12.2650 F       1  UNL1       -0.1949
      4 C          62.6665   85.5012   11.4995 C.ar    1  UNL1        0.1218
      5 C          62.8184   85.1996   10.0381 C.ar    1  UNL1        0.0208
      6 C          62.1804   86.0946    9.0173 C.ar    1  UNL1        0.0112
      7 C          61.3905   87.2912    9.4580 C.ar    1  UNL1        0.0611
      8 C          61.2387   87.5928   10.9196 C.ar    1  UNL1        0.1068
      9 N          61.8766   86.6978   11.9403 N.ar    1  UNL1       -0.2421
     10 C          60.7526   88.1863    8.4373 C.1     1  UNL1       -0.0582
     11 C          60.1146   89.0813    7.4166 C.1     1  UNL1       -0.0597
     12 C          59.4766   89.9763    6.3958 C.ar    1  UNL1        0.0428
     13 C          60.3331   90.8035    5.4837 C.ar    1  UNL1        0.0083
     14 C          59.6951   91.6985    4.4629 C.ar    1  UNL1        0.0015
     15 C          58.2005   91.7662    4.3544 C.ar    1  UNL1        0.0114
     16 C          57.3440   90.9390    5.2665 C.ar    1  UNL1        0.0583
     17 CL         55.8495   91.0068    5.1580 Cl      1  UNL1       -0.0822
     18 C          57.9821   90.0441    6.2873 C.ar    1  UNL1        0.0196
     19 O          64.5802   82.8161   14.5618 O.3     1  UNL1       -0.3755
     20 C          63.9423   83.7111   13.5411 C.3     1  UNL1        0.1932
     21 H          64.7001   83.3052   15.3909 H       1  UNL1        0.2110
     22 C          63.5607   82.5105   12.7269 C.ar    1  UNL1        0.0368
     23 C          64.0288   82.3874   11.3072 C.ar    1  UNL1        0.0028
     24 C          63.6472   81.1868   10.4930 C.ar    1  UNL1        0.0295
     25 C          62.7974   80.1093   11.0986 C.ar    1  UNL1        0.1424
     26 F          62.4157   78.9086   10.2844 F       1  UNL1       -0.2041
     27 C          62.3292   80.2324   12.5183 C.ar    1  UNL1        0.0590
     28 C          62.7109   81.4330   13.3325 C.ar    1  UNL1        0.1408
     29 F          62.2427   81.5560   14.7522 F       1  UNL1       -0.2043
     30 C          64.3240   84.9117   14.3553 C.3     1  UNL1        0.1679
     31 N          63.3744   85.4546   15.3817 N.ar    1  UNL1       -0.2078
     32 C          62.1895   84.7350   15.9545 C.ar    1  UNL1        0.2216
     33 N          61.5258   85.6480   16.9424 N.ar    1  UNL1       -0.1048
     34 N          62.3005   86.9319   16.9801 N.ar    1  UNL1       -0.0226
     35 N          63.4430   86.8123   16.0155 N.ar    1  UNL1       -0.0428
@<TRIPOS>BOND
     1    19    20    1
     2    20    30    1
     3    30    31    1
     4    31    32   ar
     5    32    33   ar
     6    33    34   ar
     7    34    35   ar
     8    20    22    1
     9    22    23   ar
    10    23    24   ar
    11    24    25   ar
    12    25    26    1
    13    25    27   ar
    14    27    28   ar
    15    28    29    1
    16    20     1    1
    17     1     2    1
    18     1     3    1
    19     1     4    1
    20     4     5   ar
    21     5     6   ar
    22     6     7   ar
    23     7    10    1
    24    10    11    3
    25    11    12    1
    26    12    13   ar
    27    13    14   ar
    28    14    15   ar
    29    15    16   ar
    30    16    17    1
    31    16    18   ar
    32     7     8   ar
    33     8     9   ar
    34    35    31   ar
    35    28    22   ar
    36     9     4   ar
    37    18    12   ar
    38    19    21    1
