@<TRIPOS>MOLECULE
*****
 32 35 0 0 0
SMALL
GASTEIGER

@<TRIPOS>ATOM
      1 C          61.2481   88.4222    9.9785 C.ar    1  UNL1        0.0951
      2 C          60.3600   88.2986    8.7760 C.ar    1  UNL1        0.1454
      3 F          59.3915   89.3946    8.4432 F       1  UNL1       -0.2040
      4 C          60.4404   87.0791    7.9063 C.ar    1  UNL1        0.0312
      5 C          61.4089   85.9831    8.2391 C.ar    1  UNL1        0.0204
      6 C          62.2971   86.1067    9.4417 C.ar    1  UNL1        0.0924
      7 C          62.2167   87.3262   10.3113 C.ar    1  UNL1        0.1598
      8 F          63.1048   87.4497   11.5138 F       1  UNL1       -0.2026
      9 C          61.1677   89.6417   10.8481 C.2     1  UNL1        0.2036
     10 O          59.8519   90.0586   11.4355 O.2     1  UNL1       -0.2863
     11 C          63.3738   89.6907   16.3183 C.3     1  UNL1        0.0307
     12 C          63.6761   90.2814   14.9730 C.2     1  UNL1        0.0074
     13 C          64.8654   91.1786   14.7980 C.2     1  UNL1        0.2278
     14 N          65.1677   91.7693   13.4528 N.2     1  UNL1       -0.0314
     15 C          64.2808   91.4628   12.2826 C.2     1  UNL1        0.3720
     16 N          64.3273   91.8960   10.8473 N.2     1  UNL1       -0.0307
     17 C          63.1668   91.2666   10.1352 C.2     1  UNL1        0.2390
     18 C          62.4030   90.4443   11.1304 C.2     1  UNL1        0.0896
     19 C          63.0916   90.5656   12.4576 C.2     1  UNL1        0.0771
     20 C          62.7892   89.9749   13.8028 C.3     1  UNL1        0.0602
     21 N          63.2656   85.0107    9.7745 N.pl3   1  UNL1       -0.2127
     22 H          64.0663   84.8756    9.2178 H       1  UNL1        0.1738
     23 S          63.0142   84.1207   10.9554 S.O2    1  UNL1        0.0758
     24 O          64.3477   83.4666   10.7464 O.2     1  UNL1       -0.1499
     25 O          61.6806   84.7748   11.1645 O.2     1  UNL1       -0.1499
     26 C          62.7628   83.2306   12.1364 C.ar    1  UNL1        0.1524
     27 C          62.4672   81.7748   11.9288 C.ar    1  UNL1        0.0225
     28 C          62.2158   80.8847   13.1097 C.ar    1  UNL1        0.0015
     29 C          62.2599   81.4505   14.4982 C.ar    1  UNL1        0.0024
     30 C          62.5554   82.9064   14.7058 C.ar    1  UNL1        0.0310
     31 C          62.8069   83.7964   13.5249 C.ar    1  UNL1        0.1589
     32 F          63.1024   85.2523   13.7324 F       1  UNL1       -0.2027
@<TRIPOS>BOND
     1    11    12    1
     2    12    13    2
     3    13    14    1
     4    14    15    2
     5    15    16    1
     6    16    17    2
     7    17    18    1
     8    18     9    1
     9     9    10    2
    10     9     1    1
    11     1     2   ar
    12     2     3    1
    13     2     4   ar
    14     4     5   ar
    15     5     6   ar
    16     6    21    1
    17    21    23    1
    18    23    24    2
    19    23    25    2
    20    23    26    1
    21    26    27   ar
    22    27    28   ar
    23    28    29   ar
    24    29    30   ar
    25    30    31   ar
    26    31    32    1
    27     6     7   ar
    28     7     8    1
    29    18    19    2
    30    19    20    1
    31    20    12    1
    32    19    15    1
    33     7     1   ar
    34    31    26   ar
    35    21    22    1
@<TRIPOS>MOLECULE
*****
 32 35 0 0 0
SMALL
GASTEIGER

@<TRIPOS>ATOM
      1 C          64.0178   88.4632   15.3627 C.ar    1  UNL1        0.0951
      2 C          63.1638   88.9958   16.4749 C.ar    1  UNL1        0.1454
      3 F          62.9369   90.4728   16.6048 F       1  UNL1       -0.2040
      4 C          62.5367   88.0514   17.4572 C.ar    1  UNL1        0.0312
      5 C          62.7636   86.5744   17.3273 C.ar    1  UNL1        0.0204
      6 C          63.6177   86.0418   16.2150 C.ar    1  UNL1        0.0924
      7 C          64.2448   86.9862   15.2328 C.ar    1  UNL1        0.1598
      8 F          65.0988   86.4535   14.1206 F       1  UNL1       -0.2026
      9 C          64.6449   89.4076   14.3805 C.2     1  UNL1        0.2036
     10 O          66.0459   89.8966   14.5997 O.2     1  UNL1       -0.2863
     11 C          61.8639   85.3985   11.0661 C.3     1  UNL1        0.0307
     12 C          62.0729   86.8834   11.1049 C.2     1  UNL1        0.0074
     13 C          61.4538   87.7556   10.0534 C.2     1  UNL1        0.2278
     14 N          61.6628   89.2405   10.0921 N.2     1  UNL1       -0.0314
     15 C          62.4910   89.8531   11.1824 C.2     1  UNL1        0.3720
     16 N          62.8692   91.2743   11.4775 N.2     1  UNL1       -0.0307
     17 C          63.7221   91.2805   12.7114 C.2     1  UNL1        0.2390
     18 C          63.8710   89.8630   13.1790 C.2     1  UNL1        0.0896
     19 C          63.1101   88.9809   12.2340 C.2     1  UNL1        0.0771
     20 C          62.9011   87.4960   12.1952 C.3     1  UNL1        0.0602
     21 N          63.8446   84.5647   16.0851 N.pl3   1  UNL1       -0.2127
     22 H          64.0589   84.0277   16.8820 H       1  UNL1        0.1738
     23 S          63.7451   83.9060   14.7412 S.O2    1  UNL1        0.0758
     24 O          65.1014   83.2969   14.9393 O.2     1  UNL1       -0.1499
     25 O          62.3887   84.5151   14.5431 O.2     1  UNL1       -0.1499
     26 C          63.6455   83.2472   13.3973 C.ar    1  UNL1        0.1524
     27 C          64.5653   83.6636   12.2880 C.ar    1  UNL1        0.0225
     28 C          64.4658   83.0048   10.9441 C.ar    1  UNL1        0.0015
     29 C          63.4464   81.9298   10.7094 C.ar    1  UNL1        0.0024
     30 C          62.5266   81.5134   11.8187 C.ar    1  UNL1        0.0310
     31 C          62.6261   82.1721   13.1626 C.ar    1  UNL1        0.1589
     32 F          61.7063   81.7558   14.2719 F       1  UNL1       -0.2027
@<TRIPOS>BOND
     1    11    12    1
     2    12    13    2
     3    13    14    1
     4    14    15    2
     5    15    16    1
     6    16    17    2
     7    17    18    1
     8    18     9    1
     9     9    10    2
    10     9     1    1
    11     1     2   ar
    12     2     3    1
    13     2     4   ar
    14     4     5   ar
    15     5     6   ar
    16     6    21    1
    17    21    23    1
    18    23    24    2
    19    23    25    2
    20    23    26    1
    21    26    27   ar
    22    27    28   ar
    23    28    29   ar
    24    29    30   ar
    25    30    31   ar
    26    31    32    1
    27     6     7   ar
    28     7     8    1
    29    18    19    2
    30    19    20    1
    31    20    12    1
    32    19    15    1
    33     7     1   ar
    34    31    26   ar
    35    21    22    1
@<TRIPOS>MOLECULE
*****
 32 35 0 0 0
SMALL
GASTEIGER

@<TRIPOS>ATOM
      1 C          64.0187   84.5628   13.8881 C.ar    1  UNL1        0.0951
      2 C          63.8535   83.1009   14.1806 C.ar    1  UNL1        0.1454
      3 F          64.4472   82.5137   15.4267 F       1  UNL1       -0.2040
      4 C          63.0946   82.2263   13.2271 C.ar    1  UNL1        0.0312
      5 C          62.5009   82.8135   11.9810 C.ar    1  UNL1        0.0204
      6 C          62.6661   84.2754   11.6885 C.ar    1  UNL1        0.0924
      7 C          63.4250   85.1501   12.6420 C.ar    1  UNL1        0.1598
      8 F          63.5901   86.6120   12.3494 F       1  UNL1       -0.2026
      9 C          64.7775   85.4374   14.8415 C.2     1  UNL1        0.2036
     10 O          66.2700   85.3228   14.9388 O.2     1  UNL1       -0.2863
     11 C          65.0569   91.1717   13.4881 C.3     1  UNL1        0.0307
     12 C          64.4246   90.2838   14.5186 C.2     1  UNL1        0.0074
     13 C          63.5754   90.8792   15.6022 C.2     1  UNL1        0.2278
     14 N          62.9432   89.9913   16.6327 N.2     1  UNL1       -0.0314
     15 C          63.1602   88.5081   16.5796 C.2     1  UNL1        0.3720
     16 N          62.6698   87.3901   17.4511 N.2     1  UNL1       -0.0307
     17 C          63.2159   86.1037   16.9061 C.2     1  UNL1        0.2390
     18 C          64.0439   86.4267   15.6978 C.2     1  UNL1        0.0896
     19 C          64.0094   87.9127   15.4960 C.2     1  UNL1        0.0771
     20 C          64.6416   88.8006   14.4655 C.3     1  UNL1        0.0602
     21 N          62.0724   84.8626   10.4424 N.pl3   1  UNL1       -0.2127
     22 H          61.8658   84.2820    9.6747 H       1  UNL1        0.1738
     23 S          61.7936   86.3345   10.3661 S.O2    1  UNL1        0.0758
     24 O          62.6535   86.4339    9.1411 O.2     1  UNL1       -0.1499
     25 O          60.9336   86.2351   11.5910 O.2     1  UNL1       -0.1499
     26 C          61.5147   87.8064   10.2897 C.ar    1  UNL1        0.1524
     27 C          62.4861   88.7853   10.8797 C.ar    1  UNL1        0.0225
     28 C          62.2073   90.2572   10.8034 C.ar    1  UNL1        0.0015
     29 C          60.9570   90.7502   10.1372 C.ar    1  UNL1        0.0024
     30 C          59.9856   89.7713    9.5472 C.ar    1  UNL1        0.0310
     31 C          60.2644   88.2994    9.6235 C.ar    1  UNL1        0.1589
     32 F          59.2931   87.3204    9.0336 F       1  UNL1       -0.2027
@<TRIPOS>BOND
     1    11    12    1
     2    12    13    2
     3    13    14    1
     4    14    15    2
     5    15    16    1
     6    16    17    2
     7    17    18    1
     8    18     9    1
     9     9    10    2
    10     9     1    1
    11     1     2   ar
    12     2     3    1
    13     2     4   ar
    14     4     5   ar
    15     5     6   ar
    16     6    21    1
    17    21    23    1
    18    23    24    2
    19    23    25    2
    20    23    26    1
    21    26    27   ar
    22    27    28   ar
    23    28    29   ar
    24    29    30   ar
    25    30    31   ar
    26    31    32    1
    27     6     7   ar
    28     7     8    1
    29    18    19    2
    30    19    20    1
    31    20    12    1
    32    19    15    1
    33     7     1   ar
    34    31    26   ar
    35    21    22    1
@<TRIPOS>MOLECULE
*****
 32 35 0 0 0
SMALL
GASTEIGER

@<TRIPOS>ATOM
      1 C          61.6581   86.7279    9.1810 C.ar    1  UNL1        0.0951
      2 C          60.4801   86.5872    8.2631 C.ar    1  UNL1        0.1454
      3 F          60.1730   85.2600    7.6352 F       1  UNL1       -0.2040
      4 C          59.6093   87.7735    7.9731 C.ar    1  UNL1        0.0312
      5 C          59.9163   89.1007    8.6010 C.ar    1  UNL1        0.0204
      6 C          61.0944   89.2415    9.5189 C.ar    1  UNL1        0.0924
      7 C          61.9652   88.0551    9.8090 C.ar    1  UNL1        0.1598
      8 F          63.1432   88.1960   10.7269 F       1  UNL1       -0.2026
      9 C          62.5289   85.5416    9.4710 C.2     1  UNL1        0.2036
     10 O          63.3409   84.9209    8.3731 O.2     1  UNL1       -0.2863
     11 C          63.0814   79.7115   10.1759 C.3     1  UNL1        0.0307
     12 C          62.9685   80.9458   11.0208 C.2     1  UNL1        0.0074
     13 C          62.9849   80.8348   12.5166 C.2     1  UNL1        0.2278
     14 N          62.8720   82.0691   13.3615 N.2     1  UNL1       -0.0314
     15 C          62.7425   83.4143   12.7106 C.2     1  UNL1        0.3720
     16 N          62.6145   84.7964   13.2793 N.2     1  UNL1       -0.0307
     17 C          62.5189   85.7615   12.1350 C.2     1  UNL1        0.2390
     18 C          62.5878   84.9759   10.8590 C.2     1  UNL1        0.0896
     19 C          62.7260   83.5252   11.2148 C.2     1  UNL1        0.0771
     20 C          62.8390   82.2909   10.3699 C.3     1  UNL1        0.0602
     21 N          61.4014   90.5687   10.1468 N.pl3   1  UNL1       -0.2127
     22 H          60.9048   91.3718    9.8682 H       1  UNL1        0.1738
     23 S          62.4653   90.6723   11.1992 S.O2    1  UNL1        0.0758
     24 O          63.4501   91.1190   10.1598 O.2     1  UNL1       -0.1499
     25 O          61.4805   90.2256   12.2387 O.2     1  UNL1       -0.1499
     26 C          63.5291   90.7760   12.2517 C.ar    1  UNL1        0.1524
     27 C          63.5431   89.8124   13.4012 C.ar    1  UNL1        0.0225
     28 C          64.6069   89.9160   14.4536 C.ar    1  UNL1        0.0015
     29 C          65.6566   90.9831   14.3566 C.ar    1  UNL1        0.0024
     30 C          65.6426   91.9466   13.2071 C.ar    1  UNL1        0.0310
     31 C          64.5788   91.8431   12.1546 C.ar    1  UNL1        0.1589
     32 F          64.5647   92.8065   11.0051 F       1  UNL1       -0.2027
@<TRIPOS>BOND
     1    11    12    1
     2    12    13    2
     3    13    14    1
     4    14    15    2
     5    15    16    1
     6    16    17    2
     7    17    18    1
     8    18     9    1
     9     9    10    2
    10     9     1    1
    11     1     2   ar
    12     2     3    1
    13     2     4   ar
    14     4     5   ar
    15     5     6   ar
    16     6    21    1
    17    21    23    1
    18    23    24    2
    19    23    25    2
    20    23    26    1
    21    26    27   ar
    22    27    28   ar
    23    28    29   ar
    24    29    30   ar
    25    30    31   ar
    26    31    32    1
    27     6     7   ar
    28     7     8    1
    29    18    19    2
    30    19    20    1
    31    20    12    1
    32    19    15    1
    33     7     1   ar
    34    31    26   ar
    35    21    22    1
@<TRIPOS>MOLECULE
*****
 32 35 0 0 0
SMALL
GASTEIGER

@<TRIPOS>ATOM
      1 C          63.3824   89.1974   12.6451 C.ar    1  UNL1        0.0951
      2 C          63.7504   90.2918   13.6026 C.ar    1  UNL1        0.1454
      3 F          63.6944   91.7244   13.1615 F       1  UNL1       -0.2040
      4 C          64.1745   89.9537   15.0011 C.ar    1  UNL1        0.0312
      5 C          64.2305   88.5211   15.4422 C.ar    1  UNL1        0.0204
      6 C          63.8624   87.4266   14.4846 C.ar    1  UNL1        0.0924
      7 C          63.4384   87.7647   13.0861 C.ar    1  UNL1        0.1598
      8 F          63.0703   86.6702   12.1287 F       1  UNL1       -0.2026
      9 C          62.9583   89.5355   11.2466 C.2     1  UNL1        0.2036
     10 O          63.8575   90.3529   10.3671 O.2     1  UNL1       -0.2863
     11 C          62.8174   84.9499    7.5392 C.3     1  UNL1        0.0307
     12 C          61.8608   85.8948    8.2040 C.2     1  UNL1        0.0074
     13 C          60.3871   85.7689    7.9545 C.2     1  UNL1        0.2278
     14 N          59.4304   86.7138    8.6193 N.2     1  UNL1       -0.0314
     15 C          59.9474   87.7845    9.5337 C.2     1  UNL1        0.3720
     16 N          59.2506   88.8524   10.3237 N.2     1  UNL1       -0.0307
     17 C          60.2937   89.6383   11.0615 C.2     1  UNL1        0.2390
     18 C          61.6352   89.0562   10.7275 C.2     1  UNL1        0.0896
     19 C          61.4211   87.9104    9.7832 C.2     1  UNL1        0.0771
     20 C          62.3778   86.9656    9.1184 C.3     1  UNL1        0.0602
     21 N          63.9184   85.9940   14.9257 N.pl3   1  UNL1       -0.2127
     22 H          64.0728   85.7764   15.8734 H       1  UNL1        0.1738
     23 S          63.7392   84.8930   13.9230 S.O2    1  UNL1        0.0758
     24 O          62.2503   85.0050   14.0659 O.2     1  UNL1       -0.1499
     25 O          65.2282   84.7808   13.7800 O.2     1  UNL1       -0.1499
     26 C          63.5600   83.7918   12.9202 C.ar    1  UNL1        0.1524
     27 C          64.0291   83.9801   11.5079 C.ar    1  UNL1        0.0225
     28 C          63.8500   82.8790   10.5051 C.ar    1  UNL1        0.0015
     29 C          63.2018   81.5898   10.9146 C.ar    1  UNL1        0.0024
     30 C          62.7327   81.4016   12.3269 C.ar    1  UNL1        0.0310
     31 C          62.9118   82.5026   13.3297 C.ar    1  UNL1        0.1589
     32 F          62.4428   82.3145   14.7419 F       1  UNL1       -0.2027
@<TRIPOS>BOND
     1    11    12    1
     2    12    13    2
     3    13    14    1
     4    14    15    2
     5    15    16    1
     6    16    17    2
     7    17    18    1
     8    18     9    1
     9     9    10    2
    10     9     1    1
    11     1     2   ar
    12     2     3    1
    13     2     4   ar
    14     4     5   ar
    15     5     6   ar
    16     6    21    1
    17    21    23    1
    18    23    24    2
    19    23    25    2
    20    23    26    1
    21    26    27   ar
    22    27    28   ar
    23    28    29   ar
    24    29    30   ar
    25    30    31   ar
    26    31    32    1
    27     6     7   ar
    28     7     8    1
    29    18    19    2
    30    19    20    1
    31    20    12    1
    32    19    15    1
    33     7     1   ar
    34    31    26   ar
    35    21    22    1
@<TRIPOS>MOLECULE
*****
 32 35 0 0 0
SMALL
GASTEIGER

@<TRIPOS>ATOM
      1 C          61.9626   86.5105   10.6163 C.ar    1  UNL1        0.0951
      2 C          60.8071   86.7165    9.6824 C.ar    1  UNL1        0.1454
      3 F          60.4035   85.6247    8.7364 F       1  UNL1       -0.2040
      4 C          60.0551   88.0143    9.6945 C.ar    1  UNL1        0.0312
      5 C          60.4586   89.1062   10.6406 C.ar    1  UNL1        0.0204
      6 C          61.6143   88.9002   11.5745 C.ar    1  UNL1        0.0924
      7 C          62.3663   87.6023   11.5624 C.ar    1  UNL1        0.1598
      8 F          63.5218   87.3964   12.4963 F       1  UNL1       -0.2026
      9 C          62.7146   85.2127   10.6042 C.2     1  UNL1        0.2036
     10 O          63.5042   84.8146    9.3925 O.2     1  UNL1       -0.2863
     11 C          62.9251   79.3703    9.8207 C.3     1  UNL1        0.0307
     12 C          62.8369   80.3564   10.9475 C.2     1  UNL1        0.0074
     13 C          62.7758   79.8713   12.3656 C.2     1  UNL1        0.2278
     14 N          62.6876   80.8574   13.4925 N.2     1  UNL1       -0.0314
     15 C          62.6605   82.3286   13.2013 C.2     1  UNL1        0.3720
     16 N          62.5783   83.5280   14.0983 N.2     1  UNL1       -0.0307
     17 C          62.5886   84.7544   13.2346 C.2     1  UNL1        0.2390
     18 C          62.6771   84.3130   11.8038 C.2     1  UNL1        0.0896
     19 C          62.7216   82.8137   11.7832 C.2     1  UNL1        0.0771
     20 C          62.8098   81.8276   10.6563 C.3     1  UNL1        0.0602
     21 N          62.0178   89.9920   12.5205 N.pl3   1  UNL1       -0.2127
     22 H          61.4659   90.1863   13.3122 H       1  UNL1        0.1738
     23 S          63.2624   90.7879   12.2603 S.O2    1  UNL1        0.0758
     24 O          63.3047   91.1938   13.7036 O.2     1  UNL1       -0.1499
     25 O          63.2201   90.3820   10.8169 O.2     1  UNL1       -0.1499
     26 C          64.5070   91.5837   12.0000 C.ar    1  UNL1        0.1524
     27 C          64.6144   92.4244   10.7623 C.ar    1  UNL1        0.0225
     28 C          65.8589   93.2202   10.5020 C.ar    1  UNL1        0.0015
     29 C          66.9960   93.1754   11.4793 C.ar    1  UNL1        0.0024
     30 C          66.8886   92.3348   12.7169 C.ar    1  UNL1        0.0310
     31 C          65.6440   91.5390   12.9773 C.ar    1  UNL1        0.1589
     32 F          65.5365   90.6983   14.2149 F       1  UNL1       -0.2027
@<TRIPOS>BOND
     1    11    12    1
     2    12    13    2
     3    13    14    1
     4    14    15    2
     5    15    16    1
     6    16    17    2
     7    17    18    1
     8    18     9    1
     9     9    10    2
    10     9     1    1
    11     1     2   ar
    12     2     3    1
    13     2     4   ar
    14     4     5   ar
    15     5     6   ar
    16     6    21    1
    17    21    23    1
    18    23    24    2
    19    23    25    2
    20    23    26    1
    21    26    27   ar
    22    27    28   ar
    23    28    29   ar
    24    29    30   ar
    25    30    31   ar
    26    31    32    1
    27     6     7   ar
    28     7     8    1
    29    18    19    2
    30    19    20    1
    31    20    12    1
    32    19    15    1
    33     7     1   ar
    34    31    26   ar
    35    21    22    1
@<TRIPOS>MOLECULE
*****
 32 35 0 0 0
SMALL
GASTEIGER

@<TRIPOS>ATOM
      1 C          61.9533   88.4358   10.5086 C.ar    1  UNL1        0.0951
      2 C          61.7349   89.6824    9.7036 C.ar    1  UNL1        0.1454
      3 F          60.8984   89.6347    8.4594 F       1  UNL1       -0.2040
      4 C          62.3530   90.9767   10.1427 C.ar    1  UNL1        0.0312
      5 C          63.1895   91.0244   11.3868 C.ar    1  UNL1        0.0204
      6 C          63.4079   89.7776   12.1919 C.ar    1  UNL1        0.0924
      7 C          62.7898   88.4833   11.7528 C.ar    1  UNL1        0.1598
      8 F          63.0083   87.2367   12.5579 F       1  UNL1       -0.2026
      9 C          61.3352   87.1415   10.0695 C.2     1  UNL1        0.2036
     10 O          59.8430   87.0124    9.9883 O.2     1  UNL1       -0.2863
     11 C          62.6335   83.1460   14.2099 C.3     1  UNL1        0.0307
     12 C          62.9223   83.4061   12.7611 C.2     1  UNL1        0.0074
     13 C          63.7875   82.4566   11.9866 C.2     1  UNL1        0.2278
     14 N          64.0763   82.7167   10.5378 N.2     1  UNL1       -0.0314
     15 C          63.4999   83.9263    9.8635 C.2     1  UNL1        0.3720
     16 N          63.6093   84.4399    8.4585 N.2     1  UNL1       -0.0307
     17 C          62.8118   85.7069    8.3646 C.2     1  UNL1        0.2390
     18 C          62.2094   85.9763    9.7117 C.2     1  UNL1        0.0896
     19 C          62.6347   84.8758   10.6381 C.2     1  UNL1        0.0771
     20 C          62.3459   84.6157   12.0868 C.3     1  UNL1        0.0602
     21 N          64.2444   89.8253   13.4361 N.pl3   1  UNL1       -0.2127
     22 H          65.0194   90.4305   13.4853 H       1  UNL1        0.1738
     23 S          63.9002   88.9509   14.6052 S.O2    1  UNL1        0.0758
     24 O          65.1926   88.2098   14.4316 O.2     1  UNL1       -0.1499
     25 O          62.6077   89.6920   14.7790 O.2     1  UNL1       -0.1499
     26 C          63.5559   88.0765   15.7745 C.ar    1  UNL1        0.1524
     27 C          63.6148   86.5839   15.6377 C.ar    1  UNL1        0.0225
     28 C          63.2706   85.7095   16.8068 C.ar    1  UNL1        0.0015
     29 C          62.8674   86.3277   18.1127 C.ar    1  UNL1        0.0024
     30 C          62.8085   87.8203   18.2495 C.ar    1  UNL1        0.0310
     31 C          63.1528   88.6947   17.0804 C.ar    1  UNL1        0.1589
     32 F          63.0939   90.1873   17.2170 F       1  UNL1       -0.2027
@<TRIPOS>BOND
     1    11    12    1
     2    12    13    2
     3    13    14    1
     4    14    15    2
     5    15    16    1
     6    16    17    2
     7    17    18    1
     8    18     9    1
     9     9    10    2
    10     9     1    1
    11     1     2   ar
    12     2     3    1
    13     2     4   ar
    14     4     5   ar
    15     5     6   ar
    16     6    21    1
    17    21    23    1
    18    23    24    2
    19    23    25    2
    20    23    26    1
    21    26    27   ar
    22    27    28   ar
    23    28    29   ar
    24    29    30   ar
    25    30    31   ar
    26    31    32    1
    27     6     7   ar
    28     7     8    1
    29    18    19    2
    30    19    20    1
    31    20    12    1
    32    19    15    1
    33     7     1   ar
    34    31    26   ar
    35    21    22    1
@<TRIPOS>MOLECULE
*****
 32 35 0 0 0
SMALL
GASTEIGER

@<TRIPOS>ATOM
      1 C          61.9317   88.4180   10.7904 C.ar    1  UNL1        0.0951
      2 C          61.1805   89.1331    9.7067 C.ar    1  UNL1        0.1454
      3 F          60.1241   88.4107    8.9243 F       1  UNL1       -0.2040
      4 C          61.4857   90.5705    9.4055 C.ar    1  UNL1        0.0312
      5 C          62.5421   91.2929   10.1879 C.ar    1  UNL1        0.0204
      6 C          63.2933   90.5777   11.2716 C.ar    1  UNL1        0.0924
      7 C          62.9882   89.1403   11.5729 C.ar    1  UNL1        0.1598
      8 F          63.7394   88.4253   12.6565 F       1  UNL1       -0.2026
      9 C          61.6266   86.9806   11.0916 C.2     1  UNL1        0.2036
     10 O          60.5694   86.6331   12.0974 O.2     1  UNL1       -0.2863
     11 C          63.8303   82.5093   14.2449 C.3     1  UNL1        0.0307
     12 C          63.7692   82.9617   12.8160 C.2     1  UNL1        0.0074
     13 C          64.4157   82.1396   11.7408 C.2     1  UNL1        0.2278
     14 N          64.3546   82.5919   10.3119 N.2     1  UNL1       -0.0314
     15 C          63.6470   83.8663    9.9583 C.2     1  UNL1        0.3720
     16 N          63.4247   84.5604    8.6473 N.2     1  UNL1       -0.0307
     17 C          62.6408   85.8115    8.9122 C.2     1  UNL1        0.2390
     18 C          62.3786   85.8907   10.3870 C.2     1  UNL1        0.0896
     19 C          63.0005   84.6884   11.0335 C.2     1  UNL1        0.0771
     20 C          63.0616   84.2361   12.4624 C.3     1  UNL1        0.0602
     21 N          64.3497   91.3001   12.0541 N.pl3   1  UNL1       -0.2127
     22 H          64.5051   91.0715   12.9989 H       1  UNL1        0.1738
     23 S          65.1693   92.3708   11.3968 S.O2    1  UNL1        0.0758
     24 O          65.4233   92.9981   12.7354 O.2     1  UNL1       -0.1499
     25 O          64.9153   91.7435   10.0582 O.2     1  UNL1       -0.1499
     26 C          65.9889   93.4415   10.7395 C.ar    1  UNL1        0.1524
     27 C          65.5510   94.8741   10.8157 C.ar    1  UNL1        0.0225
     28 C          66.3705   95.9448   10.1584 C.ar    1  UNL1        0.0015
     29 C          67.6280   95.5828    9.4250 C.ar    1  UNL1        0.0024
     30 C          68.0659   94.1502    9.3489 C.ar    1  UNL1        0.0310
     31 C          67.2463   93.0795   10.0061 C.ar    1  UNL1        0.1589
     32 F          67.6842   91.6469    9.9300 F       1  UNL1       -0.2027
@<TRIPOS>BOND
     1    11    12    1
     2    12    13    2
     3    13    14    1
     4    14    15    2
     5    15    16    1
     6    16    17    2
     7    17    18    1
     8    18     9    1
     9     9    10    2
    10     9     1    1
    11     1     2   ar
    12     2     3    1
    13     2     4   ar
    14     4     5   ar
    15     5     6   ar
    16     6    21    1
    17    21    23    1
    18    23    24    2
    19    23    25    2
    20    23    26    1
    21    26    27   ar
    22    27    28   ar
    23    28    29   ar
    24    29    30   ar
    25    30    31   ar
    26    31    32    1
    27     6     7   ar
    28     7     8    1
    29    18    19    2
    30    19    20    1
    31    20    12    1
    32    19    15    1
    33     7     1   ar
    34    31    26   ar
    35    21    22    1
@<TRIPOS>MOLECULE
*****
 32 35 0 0 0
SMALL
GASTEIGER

@<TRIPOS>ATOM
      1 C          61.9370   90.6413   11.2314 C.ar    1  UNL1        0.0951
      2 C          62.9945   91.2503   10.3592 C.ar    1  UNL1        0.1454
      3 F          62.7459   91.4254    8.8903 F       1  UNL1       -0.2040
      4 C          64.3006   91.6841   10.9558 C.ar    1  UNL1        0.0312
      5 C          64.5492   91.5090   12.4246 C.ar    1  UNL1        0.0204
      6 C          63.4916   90.9000   13.2969 C.ar    1  UNL1        0.0924
      7 C          62.1855   90.4662   12.7003 C.ar    1  UNL1        0.1598
      8 F          61.1280   89.8572   13.5725 F       1  UNL1       -0.2026
      9 C          60.6309   90.2075   10.6348 C.2     1  UNL1        0.2036
     10 O          59.3611   90.9068   11.0204 O.2     1  UNL1       -0.2863
     11 C          62.9771   85.0132   12.1536 C.3     1  UNL1        0.0307
     12 C          62.2816   85.6389   10.9811 C.2     1  UNL1        0.0074
     13 C          62.0297   84.8334    9.7411 C.2     1  UNL1        0.2278
     14 N          61.3342   85.4591    8.5687 N.2     1  UNL1       -0.0314
     15 C          60.8905   86.8903    8.6361 C.2     1  UNL1        0.3720
     16 N          60.1871   87.7709    7.6463 N.2     1  UNL1       -0.0307
     17 C          60.0043   89.1207    8.2745 C.2     1  UNL1        0.2390
     18 C          60.5946   89.0744    9.6526 C.2     1  UNL1        0.0896
     19 C          61.1423   87.6959    9.8761 C.2     1  UNL1        0.0771
     20 C          61.8379   87.0702   11.0486 C.3     1  UNL1        0.0602
     21 N          63.7402   90.7249   14.7657 N.pl3   1  UNL1       -0.2127
     22 H          63.9883   91.5005   15.3189 H       1  UNL1        0.1738
     23 S          63.6108   89.3679   15.3918 S.O2    1  UNL1        0.0758
     24 O          62.3665   89.8137   16.1009 O.2     1  UNL1       -0.1499
     25 O          64.8550   88.9220   14.6826 O.2     1  UNL1       -0.1499
     26 C          63.4814   88.0109   16.0178 C.ar    1  UNL1        0.1524
     27 C          62.8939   87.8714   17.3909 C.ar    1  UNL1        0.0225
     28 C          62.7644   86.5145   18.0169 C.ar    1  UNL1        0.0015
     29 C          63.2225   85.2970   17.2699 C.ar    1  UNL1        0.0024
     30 C          63.8100   85.4365   15.8969 C.ar    1  UNL1        0.0310
     31 C          63.9394   86.7935   15.2708 C.ar    1  UNL1        0.1589
     32 F          64.5269   86.9331   13.8977 F       1  UNL1       -0.2027
@<TRIPOS>BOND
     1    11    12    1
     2    12    13    2
     3    13    14    1
     4    14    15    2
     5    15    16    1
     6    16    17    2
     7    17    18    1
     8    18     9    1
     9     9    10    2
    10     9     1    1
    11     1     2   ar
    12     2     3    1
    13     2     4   ar
    14     4     5   ar
    15     5     6   ar
    16     6    21    1
    17    21    23    1
    18    23    24    2
    19    23    25    2
    20    23    26    1
    21    26    27   ar
    22    27    28   ar
    23    28    29   ar
    24    29    30   ar
    25    30    31   ar
    26    31    32    1
    27     6     7   ar
    28     7     8    1
    29    18    19    2
    30    19    20    1
    31    20    12    1
    32    19    15    1
    33     7     1   ar
    34    31    26   ar
    35    21    22    1
