@<TRIPOS>MOLECULE
*****
 27 30 0 0 0
SMALL
GASTEIGER

@<TRIPOS>ATOM
      1 C          63.5553   82.0304   13.5045 C.2     1  UNL1        0.4049
      2 O          64.4112   81.8165   14.7176 O.2     1  UNL1       -0.2262
      3 N          63.2860   83.4214   13.0122 N.am    1  UNL1       -0.2454
      4 C          62.4301   83.6352   11.7992 C.3     1  UNL1        0.1011
      5 C          62.1609   85.0263   11.3068 C.3     1  UNL1        0.0437
      6 C          62.7477   86.2037   12.0276 C.2     1  UNL1       -0.0394
      7 C          62.4785   87.5948   11.5353 C.2     1  UNL1        0.0093
      8 C          63.1122   88.6995   12.3277 C.ar    1  UNL1       -0.0031
      9 C          63.9059   88.1612   13.4810 C.ar    1  UNL1        0.0006
     10 C          64.6226   89.1028   14.4028 C.ar    1  UNL1        0.0114
     11 C          64.5455   90.5828   14.1713 C.ar    1  UNL1        0.0574
     12 CL         65.2622   91.5244   15.0931 Cl      1  UNL1       -0.0823
     13 C          63.7518   91.1212   13.0180 C.ar    1  UNL1        0.0071
     14 C          63.0351   90.1796   12.0962 C.ar    1  UNL1       -0.0210
     15 C          62.3053   90.9204   11.0151 C.3     1  UNL1        0.0311
     16 C          61.4723   90.3640    9.8987 C.3     1  UNL1        0.0326
     17 C          61.1634   88.9296    9.5874 C.ar    1  UNL1       -0.0042
     18 C          60.2880   88.8080    8.3754 C.ar    1  UNL1       -0.0012
     19 C          59.8605   87.4540    7.8918 C.ar    1  UNL1        0.0204
     20 C          60.3083   86.2216    8.6202 C.ar    1  UNL1        0.0988
     21 N          61.1836   86.3431    9.8321 N.ar    1  UNL1       -0.2442
     22 C          61.6112   87.6971   10.3158 C.ar    1  UNL1        0.0767
     23 C          63.6037   85.9899   13.2407 C.3     1  UNL1        0.0437
     24 C          63.8729   84.5988   13.7330 C.3     1  UNL1        0.1011
     25 O          62.9684   80.8530   12.7837 O.3     1  UNL1       -0.4345
     26 C          60.7138   80.7203   14.0679 C.3     1  UNL1        0.0513
     27 C          61.8890   80.0383   13.4325 C.3     1  UNL1        0.2102
@<TRIPOS>BOND
     1    26    27    1
     2    27    25    1
     3    25     1    1
     4     1     2    2
     5     1     3   am
     6     3     4    1
     7     4     5    1
     8     5     6    1
     9     6     7    2
    10     7     8    1
    11     8     9   ar
    12     9    10   ar
    13    10    11   ar
    14    11    12    1
    15    11    13   ar
    16    13    14   ar
    17    14    15    1
    18    15    16    1
    19    16    17    1
    20    17    18   ar
    21    18    19   ar
    22    19    20   ar
    23    20    21   ar
    24    21    22   ar
    25     6    23    1
    26    23    24    1
    27    24     3    1
    28    22     7    1
    29    14     8   ar
    30    22    17   ar
@<TRIPOS>MOLECULE
*****
 27 30 0 0 0
SMALL
GASTEIGER

@<TRIPOS>ATOM
      1 C          59.5469   88.0951    7.6277 C.2     1  UNL1        0.4049
      2 O          58.9561   86.9898    6.8035 O.2     1  UNL1       -0.2262
      3 N          60.4037   87.7697    8.8151 N.am    1  UNL1       -0.2454
      4 C          60.9945   88.8750    9.6392 C.3     1  UNL1        0.1011
      5 C          61.8513   88.5496   10.8266 C.3     1  UNL1        0.0437
      6 C          62.1174   87.1188   11.1899 C.2     1  UNL1       -0.0394
      7 C          62.9742   86.7933   12.3774 C.2     1  UNL1        0.0093
      8 C          63.1770   85.3328   12.6528 C.ar    1  UNL1       -0.0031
      9 C          62.4568   84.4808   11.6502 C.ar    1  UNL1        0.0006
     10 C          62.5302   82.9857   11.7460 C.ar    1  UNL1        0.0114
     11 C          63.3238   82.3426   12.8444 C.ar    1  UNL1        0.0574
     12 CL         63.3972   80.8474   12.9401 Cl      1  UNL1       -0.0823
     13 C          64.0441   83.1946   13.8471 C.ar    1  UNL1        0.0071
     14 C          63.9707   84.6897   13.7513 C.ar    1  UNL1       -0.0210
     15 C          64.7575   85.3482   14.8455 C.3     1  UNL1        0.0311
     16 C          64.9449   86.8125   15.1115 C.3     1  UNL1        0.0326
     17 C          64.3919   87.9800   14.3491 C.ar    1  UNL1       -0.0042
     18 C          64.8236   89.2832   14.9533 C.ar    1  UNL1       -0.0012
     19 C          64.3783   90.5779   14.3406 C.ar    1  UNL1        0.0204
     20 C          63.5012   90.5694   13.1238 C.ar    1  UNL1        0.0988
     21 N          63.0695   89.2661   12.5196 N.ar    1  UNL1       -0.2442
     22 C          63.5149   87.9714   13.1322 C.ar    1  UNL1        0.0767
     23 C          61.5266   86.0134   10.3658 C.3     1  UNL1        0.0437
     24 C          60.6698   86.3388    9.1784 C.3     1  UNL1        0.1011
     25 O          59.2809   89.5259    7.2644 O.3     1  UNL1       -0.4345
     26 C          58.6018   91.1176    5.3265 C.3     1  UNL1        0.0513
     27 C          59.4309   89.9790    5.8423 C.3     1  UNL1        0.2102
@<TRIPOS>BOND
     1    26    27    1
     2    27    25    1
     3    25     1    1
     4     1     2    2
     5     1     3   am
     6     3     4    1
     7     4     5    1
     8     5     6    1
     9     6     7    2
    10     7     8    1
    11     8     9   ar
    12     9    10   ar
    13    10    11   ar
    14    11    12    1
    15    11    13   ar
    16    13    14   ar
    17    14    15    1
    18    15    16    1
    19    16    17    1
    20    17    18   ar
    21    18    19   ar
    22    19    20   ar
    23    20    21   ar
    24    21    22   ar
    25     6    23    1
    26    23    24    1
    27    24     3    1
    28    22     7    1
    29    14     8   ar
    30    22    17   ar
@<TRIPOS>MOLECULE
*****
 27 30 0 0 0
SMALL
GASTEIGER

@<TRIPOS>ATOM
      1 C          65.9067   92.6547   14.8406 C.2     1  UNL1        0.4049
      2 O          65.7273   94.0037   14.2098 O.2     1  UNL1       -0.2262
      3 N          65.2213   91.4558   14.2552 N.am    1  UNL1       -0.2454
      4 C          65.4008   90.1068   14.8860 C.3     1  UNL1        0.1011
      5 C          64.7154   88.9079   14.3006 C.3     1  UNL1        0.0437
      6 C          63.8504   89.0579   13.0842 C.2     1  UNL1       -0.0394
      7 C          63.1649   87.8590   12.4988 C.2     1  UNL1        0.0093
      8 C          62.3243   88.1187   11.2839 C.ar    1  UNL1       -0.0031
      9 C          62.3485   89.5686   10.9003 C.ar    1  UNL1        0.0006
     10 C          61.5703   90.0423    9.7087 C.ar    1  UNL1        0.0114
     11 C          60.7679   89.0660    8.9006 C.ar    1  UNL1        0.0574
     12 CL         59.9897   89.5397    7.7090 Cl      1  UNL1       -0.0823
     13 C          60.7437   87.6161    9.2842 C.ar    1  UNL1        0.0071
     14 C          61.5219   87.1424   10.4758 C.ar    1  UNL1       -0.0210
     15 C          61.3619   85.6654   10.6830 C.3     1  UNL1        0.0311
     16 C          61.9649   84.7999   11.7495 C.3     1  UNL1        0.0326
     17 C          62.8767   85.1976   12.8722 C.ar    1  UNL1       -0.0042
     18 C          63.2509   84.0172   13.7186 C.ar    1  UNL1       -0.0012
     19 C          64.1591   84.1982   14.8986 C.ar    1  UNL1        0.0204
     20 C          64.6932   85.5596   15.2321 C.ar    1  UNL1        0.0988
     21 N          64.3190   86.7401   14.3856 N.ar    1  UNL1       -0.2442
     22 C          63.4108   86.5591   13.2056 C.ar    1  UNL1        0.0767
     23 C          63.6710   90.4070   12.4534 C.3     1  UNL1        0.0437
     24 C          64.3564   91.6059   13.0389 C.3     1  UNL1        0.1011
     25 O          66.7717   92.5046   16.0569 O.3     1  UNL1       -0.4345
     26 C          69.0880   93.6356   15.7326 C.3     1  UNL1        0.0513
     27 C          68.2606   92.3972   15.9098 C.3     1  UNL1        0.2102
@<TRIPOS>BOND
     1    26    27    1
     2    27    25    1
     3    25     1    1
     4     1     2    2
     5     1     3   am
     6     3     4    1
     7     4     5    1
     8     5     6    1
     9     6     7    2
    10     7     8    1
    11     8     9   ar
    12     9    10   ar
    13    10    11   ar
    14    11    12    1
    15    11    13   ar
    16    13    14   ar
    17    14    15    1
    18    15    16    1
    19    16    17    1
    20    17    18   ar
    21    18    19   ar
    22    19    20   ar
    23    20    21   ar
    24    21    22   ar
    25     6    23    1
    26    23    24    1
    27    24     3    1
    28    22     7    1
    29    14     8   ar
    30    22    17   ar
@<TRIPOS>MOLECULE
*****
 27 30 0 0 0
SMALL
GASTEIGER

@<TRIPOS>ATOM
      1 C          65.9227   92.5513   14.9131 C.2     1  UNL1        0.4049
      2 O          66.7917   92.3219   16.1139 O.2     1  UNL1       -0.2262
      3 N          65.2128   91.3973   14.2694 N.am    1  UNL1       -0.2454
      4 C          64.3437   91.6268   13.0686 C.3     1  UNL1        0.1011
      5 C          63.6338   90.4728   12.4250 C.3     1  UNL1        0.0437
      6 C          63.7930   89.0892   12.9822 C.2     1  UNL1       -0.0394
      7 C          63.0831   87.9351   12.3386 C.2     1  UNL1        0.0093
      8 C          63.3100   86.5954   12.9739 C.ar    1  UNL1       -0.0031
      9 C          64.2280   86.6976   14.1557 C.ar    1  UNL1        0.0006
     10 C          64.5861   85.4676   14.9360 C.ar    1  UNL1        0.0114
     11 C          64.0261   84.1353   14.5344 C.ar    1  UNL1        0.0574
     12 CL         64.3842   82.9052   15.3146 Cl      1  UNL1       -0.0823
     13 C          63.1081   84.0330   13.3525 C.ar    1  UNL1        0.0071
     14 C          62.7500   85.2630   12.5723 C.ar    1  UNL1       -0.0210
     15 C          61.8248   84.9413   11.4362 C.3     1  UNL1        0.0311
     16 C          61.2312   85.8727   10.4212 C.3     1  UNL1        0.0326
     17 C          61.4160   87.3556   10.2915 C.ar    1  UNL1       -0.0042
     18 C          60.6395   87.9053    9.1318 C.ar    1  UNL1       -0.0012
     19 C          60.6872   89.3729    8.8255 C.ar    1  UNL1        0.0204
     20 C          61.5114   90.2908    9.6789 C.ar    1  UNL1        0.0988
     21 N          62.2879   89.7411   10.8385 N.ar    1  UNL1       -0.2442
     22 C          62.2402   88.2735   11.1448 C.ar    1  UNL1        0.0767
     23 C          64.6621   88.8597   14.1831 C.3     1  UNL1        0.0437
     24 C          65.3720   90.0138   14.8267 C.3     1  UNL1        0.1011
     25 O          65.7634   93.9348   14.3558 O.3     1  UNL1       -0.4345
     26 C          66.1594   94.3856   11.8279 C.3     1  UNL1        0.0513
     27 C          66.6547   94.4026   13.2436 C.3     1  UNL1        0.2102
@<TRIPOS>BOND
     1    26    27    1
     2    27    25    1
     3    25     1    1
     4     1     2    2
     5     1     3   am
     6     3     4    1
     7     4     5    1
     8     5     6    1
     9     6     7    2
    10     7     8    1
    11     8     9   ar
    12     9    10   ar
    13    10    11   ar
    14    11    12    1
    15    11    13   ar
    16    13    14   ar
    17    14    15    1
    18    15    16    1
    19    16    17    1
    20    17    18   ar
    21    18    19   ar
    22    19    20   ar
    23    20    21   ar
    24    21    22   ar
    25     6    23    1
    26    23    24    1
    27    24     3    1
    28    22     7    1
    29    14     8   ar
    30    22    17   ar
