@<TRIPOS>MOLECULE
*****
 37 41 0 0 0
SMALL
GASTEIGER

@<TRIPOS>ATOM
      1 C          66.7293   93.7708   12.4062 C.3     1  UNL1        0.0342
      2 C          66.5503   94.2256   10.9880 C.ar    1  UNL1        0.0151
      3 C          67.4440   95.2896   10.4231 C.ar    1  UNL1        0.0990
      4 N          67.2650   95.7444    9.0049 N.ar    1  UNL1       -0.2123
      5 C          66.2903   95.3433    7.8797 C.ar    1  UNL1        0.2207
      6 N          66.0703   94.5856    9.1554 N.ar    1  UNL1       -0.2139
      7 C          65.4776   93.6162   10.1347 C.ar    1  UNL1        0.0819
      8 C          64.5840   92.5521   10.6996 C.ar    1  UNL1        0.0237
      9 C          64.7630   92.0974   12.1178 C.ar    1  UNL1        0.0224
     10 C          63.8693   91.0333   12.6826 C.ar    1  UNL1        0.1021
     11 N          62.7967   90.4240   11.8293 N.ar    1  UNL1       -0.2101
     12 C          62.6177   90.8787   10.4112 C.ar    1  UNL1        0.2249
     13 C          63.5113   91.9427    9.8463 C.ar    1  UNL1        0.0592
     14 O          61.2753   90.0398    9.5184 O.3     1  UNL1       -0.4599
     15 C          60.4085   89.7671    8.3249 C.3     1  UNL1        0.2117
     16 C          59.8520   89.8639    6.9354 C.3     1  UNL1        0.0731
     17 C          59.6730   90.3186    5.5172 C.2     1  UNL1       -0.0244
     18 C          59.8931   91.0764    4.2415 C.2     1  UNL1        0.0012
     19 C          60.4857   92.0457    3.2621 C.3     1  UNL1        0.1685
     20 O          61.3794   93.1098    2.6973 O.3     1  UNL1       -0.3442
     21 C          62.4663   94.1403    2.6150 C.3     1  UNL1        0.1721
     22 C          63.6154   95.0128    3.0253 C.ar    1  UNL1        0.0425
     23 C          64.6880   95.6221    3.8785 C.ar    1  UNL1        0.0158
     24 C          65.5549   95.8948    5.0719 C.ar    1  UNL1        0.0504
     25 C          65.9136   96.7579    3.8457 C.ar    1  UNL1        0.0178
     26 C          65.3571   96.8547    2.4561 C.ar    1  UNL1        0.0379
     27 C          64.2081   95.9822    2.0459 C.ar    1  UNL1        0.1370
     28 N          66.1113   95.7980    6.4615 N.pl3   1  UNL1       -0.2825
     29 H          66.8247   96.4743    6.4075 H       1  UNL1        0.1551
     30 O          63.6515   96.0790    0.6563 O.3     1  UNL1       -0.4742
     31 C          64.3103   95.3370   -0.4688 C.3     1  UNL1        0.2226
     32 C          63.8195   93.9739   -0.8571 C.3     1  UNL1        0.1200
     33 N          62.4618   93.8134   -1.4744 N.3     1  UNL1       -0.2696
     34 C          62.0516   94.2862   -2.8376 C.3     1  UNL1        0.0722
     35 C          60.6123   93.9169   -3.0426 C.3     1  UNL1        0.0188
     36 C          60.1329   93.2159   -1.8062 C.3     1  UNL1        0.0188
     37 C          61.2760   93.1519   -0.8370 C.3     1  UNL1        0.0722
@<TRIPOS>BOND
     1     1     2    1
     2     2     3   ar
     3     3     4   ar
     4     4     5   ar
     5     5     6   ar
     6     6     7   ar
     7     7     8    1
     8     8     9   ar
     9     9    10   ar
    10    10    11   ar
    11    11    12   ar
    12    12    13   ar
    13    12    14    1
    14    14    15    1
    15    15    16    1
    16    16    17    1
    17    17    18    2
    18    18    19    1
    19    19    20    1
    20    20    21    1
    21    21    22    1
    22    22    23   ar
    23    23    24   ar
    24    24    25   ar
    25    25    26   ar
    26    26    27   ar
    27    27    30    1
    28    30    31    1
    29    31    32    1
    30    32    33    1
    31    33    34    1
    32    34    35    1
    33    35    36    1
    34    36    37    1
    35    24    28    1
    36     7     2   ar
    37    13     8   ar
    38    27    22   ar
    39    37    33    1
    40    28     5    1
    41    28    29    1
@<TRIPOS>MOLECULE
*****
 37 41 0 0 0
SMALL
GASTEIGER

@<TRIPOS>ATOM
      1 C          73.5917   81.6125    6.5829 C.3     1  UNL1        0.0342
      2 C          73.5880   80.9406    7.9241 C.ar    1  UNL1        0.0151
      3 C          73.5786   81.7661    9.1765 C.ar    1  UNL1        0.0990
      4 N          73.5749   81.0942   10.5176 N.ar    1  UNL1       -0.2123
      5 C          73.5789   79.6179   10.9620 C.ar    1  UNL1        0.2207
      6 N          73.5853   79.7906    9.4720 N.ar    1  UNL1       -0.2139
      7 C          73.5938   79.4433    8.0128 C.ar    1  UNL1        0.0819
      8 C          73.6032   78.6178    6.7603 C.ar    1  UNL1        0.0237
      9 C          73.6069   79.2897    5.4193 C.ar    1  UNL1        0.0224
     10 C          73.6163   78.4642    4.1669 C.ar    1  UNL1        0.1021
     11 N          73.6221   76.9669    4.2556 N.ar    1  UNL1       -0.2101
     12 C          73.6184   76.2950    5.5967 C.ar    1  UNL1        0.2249
     13 C          73.6090   77.1204    6.8490 C.ar    1  UNL1        0.0592
     14 O          73.6263   74.4790    5.5257 O.3     1  UNL1       -0.4599
     15 C          73.6291   73.1023    6.1213 C.3     1  UNL1        0.2117
     16 C          73.6286   72.0122    7.1516 C.3     1  UNL1        0.0731
     17 C          73.6250   71.3403    8.4928 C.2     1  UNL1       -0.0244
     18 C          73.6185   71.1676    9.9828 C.2     1  UNL1        0.0012
     19 C          73.6101   71.5150   11.4420 C.3     1  UNL1        0.1685
     20 O          73.6006   72.3404   12.6943 O.3     1  UNL1       -0.3442
     21 C          73.5914   73.5445   13.5889 C.3     1  UNL1        0.1721
     22 C          73.5834   74.9819   14.0176 C.ar    1  UNL1        0.0425
     23 C          73.5776   76.4792   13.9289 C.ar    1  UNL1        0.0158
     24 C          73.5748   77.8559   13.3335 C.ar    1  UNL1        0.0504
     25 C          73.5674   77.8567   14.8752 C.ar    1  UNL1        0.0178
     26 C          73.5669   76.7666   15.9057 C.ar    1  UNL1        0.0379
     27 C          73.5749   75.3292   15.4769 C.ar    1  UNL1        0.1370
     28 N          73.5752   78.9460   12.3031 N.pl3   1  UNL1       -0.2825
     29 H          73.5691   79.7363   12.8902 H       1  UNL1        0.1551
     30 O          73.5745   74.2391   16.5073 O.3     1  UNL1       -0.4742
     31 C          72.4654   74.1594   17.5142 C.3     1  UNL1        0.2226
     32 C          71.2725   73.2897   17.2486 C.3     1  UNL1        0.1200
     33 N          71.4598   71.9089   16.6933 N.3     1  UNL1       -0.2696
     34 C          71.2476   71.4958   15.2670 C.3     1  UNL1        0.0722
     35 C          71.5489   70.0304   15.1592 C.3     1  UNL1        0.0188
     36 C          71.9473   69.5377   16.5188 C.3     1  UNL1        0.0188
     37 C          71.8923   70.6987   17.4669 C.3     1  UNL1        0.0722
@<TRIPOS>BOND
     1     1     2    1
     2     2     3   ar
     3     3     4   ar
     4     4     5   ar
     5     5     6   ar
     6     6     7   ar
     7     7     8    1
     8     8     9   ar
     9     9    10   ar
    10    10    11   ar
    11    11    12   ar
    12    12    13   ar
    13    12    14    1
    14    14    15    1
    15    15    16    1
    16    16    17    1
    17    17    18    2
    18    18    19    1
    19    19    20    1
    20    20    21    1
    21    21    22    1
    22    22    23   ar
    23    23    24   ar
    24    24    25   ar
    25    25    26   ar
    26    26    27   ar
    27    27    30    1
    28    30    31    1
    29    31    32    1
    30    32    33    1
    31    33    34    1
    32    34    35    1
    33    35    36    1
    34    36    37    1
    35    24    28    1
    36     7     2   ar
    37    13     8   ar
    38    27    22   ar
    39    37    33    1
    40    28     5    1
    41    28    29    1
@<TRIPOS>MOLECULE
*****
 37 41 0 0 0
SMALL
GASTEIGER

@<TRIPOS>ATOM
      1 C          59.7178   88.0675   10.1067 C.3     1  UNL1        0.0342
      2 C          59.9045   88.7853    8.8029 C.ar    1  UNL1        0.0151
      3 C          59.0441   88.4365    7.6248 C.ar    1  UNL1        0.0990
      4 N          59.2308   89.1543    6.3209 N.ar    1  UNL1       -0.2123
      5 C          60.1855   90.2715    5.8549 C.ar    1  UNL1        0.2207
      6 N          60.3867   89.8765    7.2878 N.ar    1  UNL1       -0.2139
      7 C          60.9516   89.8520    8.6772 C.ar    1  UNL1        0.0819
      8 C          61.8120   90.2009    9.8554 C.ar    1  UNL1        0.0237
      9 C          61.6253   89.4831   11.1592 C.ar    1  UNL1        0.0224
     10 C          62.4857   89.8319   12.3372 C.ar    1  UNL1        0.1021
     11 N          63.5328   90.8986   12.2116 N.ar    1  UNL1       -0.2101
     12 C          63.7195   91.6164   10.9078 C.ar    1  UNL1        0.2249
     13 C          62.8591   91.2675    9.7297 C.ar    1  UNL1        0.0592
     14 O          65.0282   92.8772   10.9265 O.3     1  UNL1       -0.4599
     15 C          65.8791   93.9524   10.3183 C.3     1  UNL1        0.2117
     16 C          66.4312   94.9064    9.3010 C.3     1  UNL1        0.0731
     17 C          66.6179   95.6243    7.9971 C.2     1  UNL1       -0.0244
     18 C          66.4167   96.0193    6.5641 C.2     1  UNL1        0.0012
     19 C          65.8518   96.0438    5.1748 C.3     1  UNL1        0.1685
     20 O          64.9914   95.6949    3.9967 O.3     1  UNL1       -0.3442
     21 C          63.9392   95.0147    3.1719 C.3     1  UNL1        0.1721
     22 C          62.8223   94.0852    2.7999 C.ar    1  UNL1        0.0425
     23 C          61.7752   93.0185    2.9256 C.ar    1  UNL1        0.0158
     24 C          60.9243   91.9434    3.5337 C.ar    1  UNL1        0.0504
     25 C          60.5883   92.2262    2.0558 C.ar    1  UNL1        0.0178
     26 C          61.1404   93.1803    1.0385 C.ar    1  UNL1        0.0379
     27 C          62.2574   94.1098    1.4105 C.ar    1  UNL1        0.1370
     28 N          60.3722   90.9893    4.5511 N.pl3   1  UNL1       -0.2825
     29 H          59.6816   90.5429    4.0097 H       1  UNL1        0.1551
     30 O          62.8095   95.0638    0.3932 O.3     1  UNL1       -0.4742
     31 C          64.0154   94.6840   -0.4143 C.3     1  UNL1        0.2226
     32 C          64.2392   95.3007   -1.7632 C.3     1  UNL1        0.1200
     33 N          64.2206   94.4419   -2.9928 N.3     1  UNL1       -0.2696
     34 C          64.6316   94.8668   -4.3714 C.3     1  UNL1        0.0722
     35 C          64.4527   93.6948   -5.2904 C.3     1  UNL1        0.0188
     36 C          63.9310   92.5455   -4.4798 C.3     1  UNL1        0.0188
     37 C          63.7875   93.0072   -3.0598 C.3     1  UNL1        0.0722
@<TRIPOS>BOND
     1     1     2    1
     2     2     3   ar
     3     3     4   ar
     4     4     5   ar
     5     5     6   ar
     6     6     7   ar
     7     7     8    1
     8     8     9   ar
     9     9    10   ar
    10    10    11   ar
    11    11    12   ar
    12    12    13   ar
    13    12    14    1
    14    14    15    1
    15    15    16    1
    16    16    17    1
    17    17    18    2
    18    18    19    1
    19    19    20    1
    20    20    21    1
    21    21    22    1
    22    22    23   ar
    23    23    24   ar
    24    24    25   ar
    25    25    26   ar
    26    26    27   ar
    27    27    30    1
    28    30    31    1
    29    31    32    1
    30    32    33    1
    31    33    34    1
    32    34    35    1
    33    35    36    1
    34    36    37    1
    35    24    28    1
    36     7     2   ar
    37    13     8   ar
    38    27    22   ar
    39    37    33    1
    40    28     5    1
    41    28    29    1
@<TRIPOS>MOLECULE
*****
 37 41 0 0 0
SMALL
GASTEIGER

@<TRIPOS>ATOM
      1 C          66.7155   93.6943   12.4748 C.3     1  UNL1        0.0342
      2 C          66.5441   94.1594   11.0590 C.ar    1  UNL1        0.0151
      3 C          67.4454   95.2224   10.5045 C.ar    1  UNL1        0.0990
      4 N          67.2740   95.6875    9.0887 N.ar    1  UNL1       -0.2123
      5 C          66.3014   95.2990    7.9573 C.ar    1  UNL1        0.2207
      6 N          66.0727   94.5340    9.2271 N.ar    1  UNL1       -0.2139
      7 C          65.4714   93.5613   10.1978 C.ar    1  UNL1        0.0819
      8 C          64.5702   92.4981   10.7524 C.ar    1  UNL1        0.0237
      9 C          64.7416   92.0331   12.1682 C.ar    1  UNL1        0.0224
     10 C          63.8403   90.9700   12.7227 C.ar    1  UNL1        0.1021
     11 N          62.7677   90.3720   11.8615 N.ar    1  UNL1       -0.2101
     12 C          62.5962   90.8370   10.4458 C.ar    1  UNL1        0.2249
     13 C          63.4975   91.9001    9.8912 C.ar    1  UNL1        0.0592
     14 O          61.2528   90.0111    9.5425 O.3     1  UNL1       -0.4599
     15 C          60.3889   89.7509    8.3442 C.3     1  UNL1        0.2117
     16 C          59.8380   89.8598    6.9533 C.3     1  UNL1        0.0731
     17 C          59.6666   90.3248    5.5375 C.2     1  UNL1       -0.0244
     18 C          59.8953   91.0898    4.2677 C.2     1  UNL1        0.0012
     19 C          60.4965   92.0626    3.2970 C.3     1  UNL1        0.1685
     20 O          61.3978   93.1257    2.7424 O.3     1  UNL1       -0.3442
     21 C          62.4904   94.1509    2.6710 C.3     1  UNL1        0.1721
     22 C          63.6425   95.0147    3.0911 C.ar    1  UNL1        0.0425
     23 C          64.7152   95.6127    3.9523 C.ar    1  UNL1        0.0158
     24 C          65.5790   95.8730    5.1506 C.ar    1  UNL1        0.0504
     25 C          65.9467   96.7422    3.9315 C.ar    1  UNL1        0.0178
     26 C          65.3958   96.8512    2.5405 C.ar    1  UNL1        0.0379
     27 C          64.2438   95.9874    2.1204 C.ar    1  UNL1        0.1370
     28 N          66.1299   95.7640    6.5416 N.pl3   1  UNL1       -0.2825
     29 H          66.8470   96.4369    6.4946 H       1  UNL1        0.1551
     30 O          63.6928   96.0963    0.7295 O.3     1  UNL1       -0.4742
     31 C          64.1969   95.1852   -0.3503 C.3     1  UNL1        0.2226
     32 C          64.3593   95.6993   -1.7501 C.3     1  UNL1        0.1200
     33 N          64.2771   94.7527   -2.9108 N.3     1  UNL1       -0.2696
     34 C          63.8187   93.3256   -2.8540 C.3     1  UNL1        0.0722
     35 C          63.8971   92.7580   -4.2403 C.3     1  UNL1        0.0188
     36 C          64.4039   93.8344   -5.1539 C.3     1  UNL1        0.0188
     37 C          64.6388   95.0671   -4.3323 C.3     1  UNL1        0.0722
@<TRIPOS>BOND
     1     1     2    1
     2     2     3   ar
     3     3     4   ar
     4     4     5   ar
     5     5     6   ar
     6     6     7   ar
     7     7     8    1
     8     8     9   ar
     9     9    10   ar
    10    10    11   ar
    11    11    12   ar
    12    12    13   ar
    13    12    14    1
    14    14    15    1
    15    15    16    1
    16    16    17    1
    17    17    18    2
    18    18    19    1
    19    19    20    1
    20    20    21    1
    21    21    22    1
    22    22    23   ar
    23    23    24   ar
    24    24    25   ar
    25    25    26   ar
    26    26    27   ar
    27    27    30    1
    28    30    31    1
    29    31    32    1
    30    32    33    1
    31    33    34    1
    32    34    35    1
    33    35    36    1
    34    36    37    1
    35    24    28    1
    36     7     2   ar
    37    13     8   ar
    38    27    22   ar
    39    37    33    1
    40    28     5    1
    41    28    29    1
@<TRIPOS>MOLECULE
*****
 37 41 0 0 0
SMALL
GASTEIGER

@<TRIPOS>ATOM
      1 C          59.9271   88.0333   10.4754 C.3     1  UNL1        0.0342
      2 C          60.0256   88.7161    9.1434 C.ar    1  UNL1        0.0151
      3 C          59.1014   88.3235    8.0291 C.ar    1  UNL1        0.0990
      4 N          59.1999   89.0063    6.6971 N.ar    1  UNL1       -0.2123
      5 C          60.1094   90.1216    6.1440 C.ar    1  UNL1        0.2207
      6 N          60.4013   89.7698    7.5727 N.ar    1  UNL1       -0.2139
      7 C          61.0483   89.7916    8.9257 C.ar    1  UNL1        0.0819
      8 C          61.9726   90.1843   10.0401 C.ar    1  UNL1        0.0237
      9 C          61.8740   89.5014   11.3720 C.ar    1  UNL1        0.0224
     10 C          62.7982   89.8941   12.4863 C.ar    1  UNL1        0.1021
     11 N          63.8210   90.9696   12.2686 N.ar    1  UNL1       -0.2101
     12 C          63.9195   91.6524   10.9367 C.ar    1  UNL1        0.2249
     13 C          62.9953   91.2597    9.8225 C.ar    1  UNL1        0.0592
     14 O          65.2093   92.9292   10.8421 O.3     1  UNL1       -0.4599
     15 C          66.0073   93.9971   10.1544 C.3     1  UNL1        0.2117
     16 C          66.4844   94.9286    9.0800 C.3     1  UNL1        0.0731
     17 C          66.5829   95.6115    7.7480 C.2     1  UNL1       -0.0244
     18 C          66.2910   95.9632    6.3193 C.2     1  UNL1        0.0012
     19 C          65.6439   95.9414    4.9662 C.3     1  UNL1        0.1685
     20 O          64.7197   95.5488    3.8520 O.3     1  UNL1       -0.3442
     21 C          63.6298   94.8326    3.1109 C.3     1  UNL1        0.1721
     22 C          62.5057   93.8793    2.8324 C.ar    1  UNL1        0.0425
     23 C          61.4830   92.8038    3.0500 C.ar    1  UNL1        0.0158
     24 C          60.6850   91.7359    3.7375 C.ar    1  UNL1        0.0504
     25 C          60.2575   91.9726    2.2753 C.ar    1  UNL1        0.0178
     26 C          60.7346   92.9042    1.2007 C.ar    1  UNL1        0.0379
     27 C          61.8586   93.8575    1.4792 C.ar    1  UNL1        0.1370
     28 N          60.2079   90.8044    4.8121 N.pl3   1  UNL1       -0.2825
     29 H          59.4926   90.3343    4.3257 H       1  UNL1        0.1551
     30 O          62.3357   94.7890    0.4047 O.3     1  UNL1       -0.4742
     31 C          61.4492   95.9016   -0.0713 C.3     1  UNL1        0.2226
     32 C          60.6713   95.7481   -1.3446 C.3     1  UNL1        0.1200
     33 N          59.5638   94.7401   -1.4299 N.3     1  UNL1       -0.2696
     34 C          59.5574   93.5073   -2.2844 C.3     1  UNL1        0.0722
     35 C          58.2578   92.7932   -2.0582 C.3     1  UNL1        0.0188
     36 C          57.4609   93.5847   -1.0639 C.3     1  UNL1        0.0188
     37 C          58.2680   94.7879   -0.6756 C.3     1  UNL1        0.0722
@<TRIPOS>BOND
     1     1     2    1
     2     2     3   ar
     3     3     4   ar
     4     4     5   ar
     5     5     6   ar
     6     6     7   ar
     7     7     8    1
     8     8     9   ar
     9     9    10   ar
    10    10    11   ar
    11    11    12   ar
    12    12    13   ar
    13    12    14    1
    14    14    15    1
    15    15    16    1
    16    16    17    1
    17    17    18    2
    18    18    19    1
    19    19    20    1
    20    20    21    1
    21    21    22    1
    22    22    23   ar
    23    23    24   ar
    24    24    25   ar
    25    25    26   ar
    26    26    27   ar
    27    27    30    1
    28    30    31    1
    29    31    32    1
    30    32    33    1
    31    33    34    1
    32    34    35    1
    33    35    36    1
    34    36    37    1
    35    24    28    1
    36     7     2   ar
    37    13     8   ar
    38    27    22   ar
    39    37    33    1
    40    28     5    1
    41    28    29    1
@<TRIPOS>MOLECULE
*****
 37 41 0 0 0
SMALL
GASTEIGER

@<TRIPOS>ATOM
      1 C          62.1903   94.7772   -0.0709 C.3     1  UNL1        0.0342
      2 C          61.7462   93.8903    1.0544 C.ar    1  UNL1        0.0151
      3 C          60.6148   92.9272    0.8487 C.ar    1  UNL1        0.0990
      4 N          60.1707   92.0404    1.9740 N.ar    1  UNL1       -0.2123
      5 C          60.6420   91.8630    3.4312 C.ar    1  UNL1        0.2207
      6 N          61.4184   92.9016    2.6772 N.ar    1  UNL1       -0.2139
      7 C          62.4336   93.9666    2.3855 C.ar    1  UNL1        0.0819
      8 C          63.5650   94.9298    2.5912 C.ar    1  UNL1        0.0237
      9 C          64.0090   95.8166    1.4659 C.ar    1  UNL1        0.0224
     10 C          65.1404   96.7797    1.6716 C.ar    1  UNL1        0.1021
     11 N          65.8278   96.8560    3.0027 N.ar    1  UNL1       -0.2101
     12 C          65.3837   95.9692    4.1280 C.ar    1  UNL1        0.2249
     13 C          64.2523   95.0061    3.9222 C.ar    1  UNL1        0.0592
     14 O          66.3205   96.1881    5.6698 O.3     1  UNL1       -0.4599
     15 C          66.6553   95.8944    7.1022 C.3     1  UNL1        0.2117
     16 C          66.5972   95.2664    8.4631 C.3     1  UNL1        0.0731
     17 C          66.1531   94.3795    9.5885 C.2     1  UNL1       -0.0244
     18 C          65.3767   93.3410   10.3425 C.2     1  UNL1        0.0012
     19 C          64.3616   92.2759   10.6342 C.3     1  UNL1        0.1685
     20 O          63.2302   91.3128   10.4284 O.3     1  UNL1       -0.3442
     21 C          62.1190   90.5678    9.7500 C.3     1  UNL1        0.1721
     22 C          61.1620   90.1308    8.6809 C.ar    1  UNL1        0.0425
     23 C          60.4747   90.0545    7.3498 C.ar    1  UNL1        0.0158
     24 C          60.1399   90.3481    5.9175 C.ar    1  UNL1        0.0504
     25 C          59.2480   89.2568    6.5425 C.ar    1  UNL1        0.0178
     26 C          59.1899   88.6287    7.9034 C.ar    1  UNL1        0.0379
     27 C          60.1468   89.0657    8.9726 C.ar    1  UNL1        0.1370
     28 N          60.1980   90.9762    4.5565 N.pl3   1  UNL1       -0.2825
     29 H          59.4687   90.4872    4.1113 H       1  UNL1        0.1551
     30 O          60.0888   88.4376   10.3335 O.3     1  UNL1       -0.4742
     31 C          60.6463   87.0618   10.5490 C.3     1  UNL1        0.2226
     32 C          61.8675   86.6214    9.7976 C.3     1  UNL1        0.1200
     33 N          62.5840   85.3666   10.2005 N.3     1  UNL1       -0.2696
     34 C          63.3508   84.4570    9.2869 C.3     1  UNL1        0.0722
     35 C          63.9001   83.3294   10.1096 C.3     1  UNL1        0.0188
     36 C          63.4728   83.5421   11.5316 C.3     1  UNL1        0.0188
     37 C          62.6594   84.8011   11.5879 C.3     1  UNL1        0.0722
@<TRIPOS>BOND
     1     1     2    1
     2     2     3   ar
     3     3     4   ar
     4     4     5   ar
     5     5     6   ar
     6     6     7   ar
     7     7     8    1
     8     8     9   ar
     9     9    10   ar
    10    10    11   ar
    11    11    12   ar
    12    12    13   ar
    13    12    14    1
    14    14    15    1
    15    15    16    1
    16    16    17    1
    17    17    18    2
    18    18    19    1
    19    19    20    1
    20    20    21    1
    21    21    22    1
    22    22    23   ar
    23    23    24   ar
    24    24    25   ar
    25    25    26   ar
    26    26    27   ar
    27    27    30    1
    28    30    31    1
    29    31    32    1
    30    32    33    1
    31    33    34    1
    32    34    35    1
    33    35    36    1
    34    36    37    1
    35    24    28    1
    36     7     2   ar
    37    13     8   ar
    38    27    22   ar
    39    37    33    1
    40    28     5    1
    41    28    29    1
