@<TRIPOS>MOLECULE
*****
 22 25 0 0 0
SMALL
GASTEIGER

@<TRIPOS>ATOM
      1 C          62.1695   89.8992   11.4925 C.3     1  UNL1        0.0849
      2 C          62.5276   90.5354   10.1822 C.3     1  UNL1        0.0159
      3 C          63.6516   91.5262   10.1119 C.3     1  UNL1        0.0444
      4 C          64.4176   91.8807   11.3519 C.ar    1  UNL1        0.0398
      5 C          64.0595   91.2444   12.6622 C.ar    1  UNL1        0.0478
      6 C          64.9866   91.7865   13.7095 C.ar    1  UNL1        0.0196
      7 C          65.1033   91.5211   15.1812 C.ar    1  UNL1        0.0016
      8 C          66.1511   92.2270   15.9897 C.ar    1  UNL1        0.0001
      9 C          67.0822   93.1982   15.3266 C.ar    1  UNL1        0.0015
     10 C          66.9655   93.4636   13.8549 C.ar    1  UNL1        0.0172
     11 C          65.9177   92.7577   13.0463 C.ar    1  UNL1        0.0598
     12 N          65.5660   92.8159   11.5893 N.ar    1  UNL1       -0.3285
     13 C          66.2438   93.6610   10.5518 C.3     1  UNL1        0.1301
     14 C          62.9355   90.2537   12.7325 C.2     1  UNL1        0.1756
     15 O          62.5773   89.6174   14.0429 O.2     1  UNL1       -0.2912
     16 C          61.0454   88.9084   11.5628 C.3     1  UNL1        0.1149
     17 C          61.8181   85.7491   11.2953 C.3     1  UNL1        0.0718
     18 C          61.1050   86.5727   10.2642 C.ar    1  UNL1        0.1208
     19 N          60.6219   86.0889    8.9292 N.ar    1  UNL1       -0.2293
     20 C          59.9682   87.2420    8.2270 C.ar    1  UNL1        0.1188
     21 C          60.0473   88.4385    9.1281 C.ar    1  UNL1        0.0977
     22 N          60.7499   88.0249   10.3872 N.ar    1  UNL1       -0.3132
@<TRIPOS>BOND
     1    17    18    1
     2    18    19   ar
     3    19    20   ar
     4    20    21   ar
     5    21    22   ar
     6    22    16    1
     7    16     1    1
     8     1     2    1
     9     2     3    1
    10     3     4    1
    11     4     5   ar
    12     5     6   ar
    13     6     7   ar
    14     7     8   ar
    15     8     9   ar
    16     9    10   ar
    17    10    11   ar
    18    11    12   ar
    19    12    13    1
    20     5    14    1
    21    14    15    2
    22    22    18   ar
    23    14     1    1
    24    12     4   ar
    25    11     6   ar
@<TRIPOS>MOLECULE
*****
 22 25 0 0 0
SMALL
GASTEIGER

@<TRIPOS>ATOM
      1 C          63.4490   89.8931   12.8844 C.3     1  UNL1        0.0849
      2 C          63.9309   88.5997   13.4717 C.3     1  UNL1        0.0159
      3 C          63.5046   87.2957   12.8652 C.3     1  UNL1        0.0444
      4 C          62.5964   87.2851   11.6715 C.ar    1  UNL1        0.0398
      5 C          62.1144   88.5784   11.0842 C.ar    1  UNL1        0.0478
      6 C          61.2327   88.2563    9.9142 C.ar    1  UNL1        0.0196
      7 C          60.4791   89.1291    8.9550 C.ar    1  UNL1        0.0016
      8 C          59.6625   88.5094    7.8600 C.ar    1  UNL1        0.0001
      9 C          59.5995   87.0169    7.7242 C.ar    1  UNL1        0.0015
     10 C          60.3531   86.1441    8.6834 C.ar    1  UNL1        0.0172
     11 C          61.1697   86.7637    9.7784 C.ar    1  UNL1        0.0598
     12 N          62.0125   86.1635   10.8645 N.ar    1  UNL1       -0.3285
     13 C          62.2327   84.6989   11.1018 C.3     1  UNL1        0.1301
     14 C          62.5407   89.8824   11.6906 C.2     1  UNL1        0.1756
     15 O          62.0588   91.1759   11.1033 O.2     1  UNL1       -0.2912
     16 C          63.8753   91.1972   13.4908 C.3     1  UNL1        0.1149
     17 C          65.2430   92.6649   10.9169 C.3     1  UNL1        0.0718
     18 C          65.9327   92.3163   12.2025 C.ar    1  UNL1        0.1208
     19 N          67.3722   92.5811   12.5308 N.ar    1  UNL1       -0.2293
     20 C          67.6332   92.0701   13.9167 C.ar    1  UNL1        0.1188
     21 C          66.3550   91.4895   14.4450 C.ar    1  UNL1        0.0977
     22 N          65.3040   91.6417   13.3856 N.ar    1  UNL1       -0.3132
@<TRIPOS>BOND
     1    17    18    1
     2    18    19   ar
     3    19    20   ar
     4    20    21   ar
     5    21    22   ar
     6    22    16    1
     7    16     1    1
     8     1     2    1
     9     2     3    1
    10     3     4    1
    11     4     5   ar
    12     5     6   ar
    13     6     7   ar
    14     7     8   ar
    15     8     9   ar
    16     9    10   ar
    17    10    11   ar
    18    11    12   ar
    19    12    13    1
    20     5    14    1
    21    14    15    2
    22    22    18   ar
    23    14     1    1
    24    12     4   ar
    25    11     6   ar
@<TRIPOS>MOLECULE
*****
 22 25 0 0 0
SMALL
GASTEIGER

@<TRIPOS>ATOM
      1 C          63.3561   90.1018   12.4101 C.3     1  UNL1        0.0849
      2 C          62.7343   90.3135   11.0616 C.3     1  UNL1        0.0159
      3 C          62.2749   89.1357   10.2543 C.3     1  UNL1        0.0444
      4 C          62.4373   87.7462   10.7955 C.ar    1  UNL1        0.0398
      5 C          63.0590   87.5345   12.1441 C.ar    1  UNL1        0.0478
      6 C          63.0881   86.0594   12.4147 C.ar    1  UNL1        0.0196
      7 C          63.5863   85.2632   13.5842 C.ar    1  UNL1        0.0016
      8 C          63.4808   83.7670   13.5724 C.ar    1  UNL1        0.0001
      9 C          62.8769   83.0670   12.3911 C.ar    1  UNL1        0.0015
     10 C          62.3787   83.8632   11.2216 C.ar    1  UNL1        0.0172
     11 C          62.4843   85.3594   11.2334 C.ar    1  UNL1        0.0598
     12 N          62.0820   86.4020   10.2327 N.ar    1  UNL1       -0.3285
     13 C          61.4377   86.1452    8.9027 C.3     1  UNL1        0.1301
     14 C          63.5185   88.7123   12.9514 C.2     1  UNL1        0.1756
     15 O          64.1403   88.5006   14.3000 O.2     1  UNL1       -0.2912
     16 C          63.8155   91.2796   13.2175 C.3     1  UNL1        0.1149
     17 C          65.3299   92.9175   10.8355 C.3     1  UNL1        0.0718
     18 C          65.9571   92.4330   12.1090 C.ar    1  UNL1        0.1208
     19 N          67.3905   92.6162   12.5113 N.ar    1  UNL1       -0.2293
     20 C          67.5803   91.9767   13.8548 C.ar    1  UNL1        0.1188
     21 C          66.2642   91.3981   14.2829 C.ar    1  UNL1        0.0977
     22 N          65.2610   91.6802   13.2039 N.ar    1  UNL1       -0.3132
@<TRIPOS>BOND
     1    17    18    1
     2    18    19   ar
     3    19    20   ar
     4    20    21   ar
     5    21    22   ar
     6    22    16    1
     7    16     1    1
     8     1     2    1
     9     2     3    1
    10     3     4    1
    11     4     5   ar
    12     5     6   ar
    13     6     7   ar
    14     7     8   ar
    15     8     9   ar
    16     9    10   ar
    17    10    11   ar
    18    11    12   ar
    19    12    13    1
    20     5    14    1
    21    14    15    2
    22    22    18   ar
    23    14     1    1
    24    12     4   ar
    25    11     6   ar
@<TRIPOS>MOLECULE
*****
 22 25 0 0 0
SMALL
GASTEIGER

@<TRIPOS>ATOM
      1 C          64.1694   90.3966   13.7413 C.3     1  UNL1        0.0849
      2 C          64.6490   89.2943   14.6384 C.3     1  UNL1        0.0159
      3 C          64.3208   87.8671   14.3140 C.3     1  UNL1        0.0444
      4 C          63.5130   87.5421   13.0926 C.ar    1  UNL1        0.0398
      5 C          63.0334   88.6445   12.1955 C.ar    1  UNL1        0.0478
      6 C          62.2615   88.0230   11.0695 C.ar    1  UNL1        0.0196
      7 C          61.5566   88.6186    9.8870 C.ar    1  UNL1        0.0016
      8 C          60.8542   87.7278    8.9056 C.ar    1  UNL1        0.0001
      9 C          60.8568   86.2413    9.1068 C.ar    1  UNL1        0.0015
     10 C          61.5616   85.6457   10.2893 C.ar    1  UNL1        0.0172
     11 C          62.2640   86.5366   11.2706 C.ar    1  UNL1        0.0598
     12 N          63.0375   86.2394   12.5210 N.ar    1  UNL1       -0.3285
     13 C          63.2910   84.8784   13.0984 C.3     1  UNL1        0.1301
     14 C          63.3616   90.0717   12.5198 C.2     1  UNL1        0.1756
     15 O          62.8819   91.1742   11.6227 O.2     1  UNL1       -0.2912
     16 C          64.4975   91.8240   14.0656 C.3     1  UNL1        0.1149
     17 C          66.9123   92.4186   11.9526 C.3     1  UNL1        0.0718
     18 C          67.0136   92.4818   13.4478 C.ar    1  UNL1        0.1208
     19 N          68.2426   92.8294   14.2343 N.ar    1  UNL1       -0.2293
     20 C          67.8923   92.7710   15.6916 C.ar    1  UNL1        0.1188
     21 C          66.4467   92.3872   15.8058 C.ar    1  UNL1        0.0977
     22 N          65.9037   92.2085   14.4190 N.ar    1  UNL1       -0.3132
@<TRIPOS>BOND
     1    17    18    1
     2    18    19   ar
     3    19    20   ar
     4    20    21   ar
     5    21    22   ar
     6    22    16    1
     7    16     1    1
     8     1     2    1
     9     2     3    1
    10     3     4    1
    11     4     5   ar
    12     5     6   ar
    13     6     7   ar
    14     7     8   ar
    15     8     9   ar
    16     9    10   ar
    17    10    11   ar
    18    11    12   ar
    19    12    13    1
    20     5    14    1
    21    14    15    2
    22    22    18   ar
    23    14     1    1
    24    12     4   ar
    25    11     6   ar
@<TRIPOS>MOLECULE
*****
 22 25 0 0 0
SMALL
GASTEIGER

@<TRIPOS>ATOM
      1 C          63.2194   84.9406   13.3584 C.3     1  UNL1        0.0849
      2 C          62.3893   84.8672   12.1113 C.3     1  UNL1        0.0159
      3 C          62.1091   86.1119   11.3224 C.3     1  UNL1        0.0444
      4 C          62.6592   87.4300   11.7808 C.ar    1  UNL1        0.0398
      5 C          63.4893   87.5034   13.0280 C.ar    1  UNL1        0.0478
      6 C          63.8941   88.9333   13.2320 C.ar    1  UNL1        0.0196
      7 C          64.7158   89.6022   14.2937 C.ar    1  UNL1        0.0016
      8 C          64.9575   91.0813   14.2343 C.ar    1  UNL1        0.0001
      9 C          64.3775   91.8917   13.1132 C.ar    1  UNL1        0.0015
     10 C          63.5558   91.2228   12.0514 C.ar    1  UNL1        0.0172
     11 C          63.3141   89.7437   12.1108 C.ar    1  UNL1        0.0598
     12 N          62.5509   88.8146   11.2140 N.ar    1  UNL1       -0.3285
     13 C          61.8095   89.2020    9.9689 C.3     1  UNL1        0.1301
     14 C          63.7694   86.2587   13.8168 C.2     1  UNL1        0.1756
     15 O          64.5996   86.3321   15.0640 O.2     1  UNL1       -0.2912
     16 C          63.4996   83.6959   14.1473 C.3     1  UNL1        0.1149
     17 C          64.4773   82.1846   11.4252 C.3     1  UNL1        0.0718
     18 C          63.4589   81.6730   12.4004 C.ar    1  UNL1        0.1208
     19 N          62.7110   80.3770   12.2957 N.ar    1  UNL1       -0.2293
     20 C          61.7994   80.2707   13.4821 C.ar    1  UNL1        0.1188
     21 C          61.9838   81.5010   14.3202 C.ar    1  UNL1        0.0977
     22 N          63.0095   82.3677   13.6516 N.ar    1  UNL1       -0.3132
@<TRIPOS>BOND
     1    17    18    1
     2    18    19   ar
     3    19    20   ar
     4    20    21   ar
     5    21    22   ar
     6    22    16    1
     7    16     1    1
     8     1     2    1
     9     2     3    1
    10     3     4    1
    11     4     5   ar
    12     5     6   ar
    13     6     7   ar
    14     7     8   ar
    15     8     9   ar
    16     9    10   ar
    17    10    11   ar
    18    11    12   ar
    19    12    13    1
    20     5    14    1
    21    14    15    2
    22    22    18   ar
    23    14     1    1
    24    12     4   ar
    25    11     6   ar
@<TRIPOS>MOLECULE
*****
 22 25 0 0 0
SMALL
GASTEIGER

@<TRIPOS>ATOM
      1 C          63.7854   85.5952   12.9298 C.3     1  UNL1        0.0849
      2 C          64.0158   86.9351   13.5634 C.3     1  UNL1        0.0159
      3 C          63.3774   88.1605   12.9797 C.3     1  UNL1        0.0444
      4 C          62.5086   88.0459   11.7622 C.ar    1  UNL1        0.0398
      5 C          62.2782   86.7060   11.1286 C.ar    1  UNL1        0.0478
      6 C          61.3794   86.9018    9.9438 C.ar    1  UNL1        0.0196
      7 C          60.8150   85.9386    8.9420 C.ar    1  UNL1        0.0016
      8 C          59.9255   86.4364    7.8416 C.ar    1  UNL1        0.0001
      9 C          59.6004   87.8974    7.7430 C.ar    1  UNL1        0.0015
     10 C          60.1647   88.8606    8.7447 C.ar    1  UNL1        0.0172
     11 C          61.0542   88.3629    9.8451 C.ar    1  UNL1        0.0598
     12 N          61.7521   89.0699   10.9690 N.ar    1  UNL1       -0.3285
     13 C          61.7023   90.5425   11.2503 C.3     1  UNL1        0.1301
     14 C          62.9166   85.4806   11.7124 C.2     1  UNL1        0.1756
     15 O          62.6863   84.1406   11.0787 O.2     1  UNL1       -0.2912
     16 C          64.4239   84.3697   13.5136 C.3     1  UNL1        0.1149
     17 C          61.9416   84.1447   15.6201 C.3     1  UNL1        0.0718
     18 C          62.4564   83.0421   14.7430 C.ar    1  UNL1        0.1208
     19 N          61.9205   81.6425   14.6801 N.ar    1  UNL1       -0.2293
     20 C          62.7303   80.8809   13.6730 C.ar    1  UNL1        0.1188
     21 C          63.7667   81.8098   13.1134 C.ar    1  UNL1        0.0977
     22 N          63.5973   83.1455   13.7748 N.ar    1  UNL1       -0.3132
@<TRIPOS>BOND
     1    17    18    1
     2    18    19   ar
     3    19    20   ar
     4    20    21   ar
     5    21    22   ar
     6    22    16    1
     7    16     1    1
     8     1     2    1
     9     2     3    1
    10     3     4    1
    11     4     5   ar
    12     5     6   ar
    13     6     7   ar
    14     7     8   ar
    15     8     9   ar
    16     9    10   ar
    17    10    11   ar
    18    11    12   ar
    19    12    13    1
    20     5    14    1
    21    14    15    2
    22    22    18   ar
    23    14     1    1
    24    12     4   ar
    25    11     6   ar
@<TRIPOS>MOLECULE
*****
 22 25 0 0 0
SMALL
GASTEIGER

@<TRIPOS>ATOM
      1 C          63.8170   90.1045   13.2720 C.3     1  UNL1        0.0849
      2 C          64.3762   89.8104   14.6324 C.3     1  UNL1        0.0159
      3 C          64.4742   88.3927   15.1126 C.3     1  UNL1        0.0444
      4 C          64.0130   87.2692   14.2323 C.ar    1  UNL1        0.0398
      5 C          63.4538   87.5633   12.8718 C.ar    1  UNL1        0.0478
      6 C          63.0815   86.2588   12.2317 C.ar    1  UNL1        0.0196
      7 C          62.4854   85.9308   10.8949 C.ar    1  UNL1        0.0016
      8 C          62.2184   84.5024   10.5230 C.ar    1  UNL1        0.0001
      9 C          62.5475   83.4020   11.4878 C.ar    1  UNL1        0.0015
     10 C          63.1436   83.7300   12.8246 C.ar    1  UNL1        0.0172
     11 C          63.4106   85.1584   13.1965 C.ar    1  UNL1        0.0598
     12 N          63.9863   85.7829   14.4329 N.ar    1  UNL1       -0.3285
     13 C          64.4533   85.0497   15.6554 C.3     1  UNL1        0.1301
     14 C          63.3558   88.9809   12.3917 C.2     1  UNL1        0.1756
     15 O          62.7966   89.2751   11.0312 O.2     1  UNL1       -0.2912
     16 C          63.7190   91.5223   12.7918 C.3     1  UNL1        0.1149
     17 C          66.2538   92.8853   14.3302 C.3     1  UNL1        0.0718
     18 C          66.0652   92.8022   12.8444 C.ar    1  UNL1        0.1208
     19 N          67.0085   93.3310   11.8049 N.ar    1  UNL1       -0.2293
     20 C          66.4263   93.0312   10.4554 C.ar    1  UNL1        0.1188
     21 C          65.1233   92.3172   10.6608 C.ar    1  UNL1        0.0977
     22 N          64.9001   92.1757   12.1374 N.ar    1  UNL1       -0.3132
@<TRIPOS>BOND
     1    17    18    1
     2    18    19   ar
     3    19    20   ar
     4    20    21   ar
     5    21    22   ar
     6    22    16    1
     7    16     1    1
     8     1     2    1
     9     2     3    1
    10     3     4    1
    11     4     5   ar
    12     5     6   ar
    13     6     7   ar
    14     7     8   ar
    15     8     9   ar
    16     9    10   ar
    17    10    11   ar
    18    11    12   ar
    19    12    13    1
    20     5    14    1
    21    14    15    2
    22    22    18   ar
    23    14     1    1
    24    12     4   ar
    25    11     6   ar
@<TRIPOS>MOLECULE
*****
 22 25 0 0 0
SMALL
GASTEIGER

@<TRIPOS>ATOM
      1 C          63.8002   85.0320   14.0103 C.3     1  UNL1        0.0849
      2 C          64.5836   85.7648   15.0588 C.3     1  UNL1        0.0159
      3 C          64.7290   87.2557   14.9811 C.3     1  UNL1        0.0444
      4 C          64.0910   88.0138   13.8549 C.ar    1  UNL1        0.0398
      5 C          63.3076   87.2810   12.8064 C.ar    1  UNL1        0.0478
      6 C          62.7951   88.2895   11.8214 C.ar    1  UNL1        0.0196
      7 C          61.9638   88.1482   10.5809 C.ar    1  UNL1        0.0016
      8 C          61.5991   89.3629    9.7801 C.ar    1  UNL1        0.0001
      9 C          62.0657   90.7190   10.2198 C.ar    1  UNL1        0.0015
     10 C          62.8970   90.8603   11.4603 C.ar    1  UNL1        0.0172
     11 C          63.2617   89.6456   12.2611 C.ar    1  UNL1        0.0598
     12 N          64.0626   89.4752   13.5178 N.ar    1  UNL1       -0.3285
     13 C          64.7198   90.5734   14.3002 C.3     1  UNL1        0.1301
     14 C          63.1622   85.7901   12.8841 C.2     1  UNL1        0.1756
     15 O          62.3788   85.0573   11.8356 O.2     1  UNL1       -0.2912
     16 C          63.6547   83.5410   14.0880 C.3     1  UNL1        0.1149
     17 C          61.5784   81.0919   13.5046 C.3     1  UNL1        0.0718
     18 C          62.6270   81.6024   12.5613 C.ar    1  UNL1        0.1208
     19 N          62.9053   81.0769   11.1842 N.ar    1  UNL1       -0.2293
     20 C          64.0317   81.8779   10.6013 C.ar    1  UNL1        0.1188
     21 C          64.4495   82.8984   11.6181 C.ar    1  UNL1        0.0977
     22 N          63.5813   82.7282   12.8295 N.ar    1  UNL1       -0.3132
@<TRIPOS>BOND
     1    17    18    1
     2    18    19   ar
     3    19    20   ar
     4    20    21   ar
     5    21    22   ar
     6    22    16    1
     7    16     1    1
     8     1     2    1
     9     2     3    1
    10     3     4    1
    11     4     5   ar
    12     5     6   ar
    13     6     7   ar
    14     7     8   ar
    15     8     9   ar
    16     9    10   ar
    17    10    11   ar
    18    11    12   ar
    19    12    13    1
    20     5    14    1
    21    14    15    2
    22    22    18   ar
    23    14     1    1
    24    12     4   ar
    25    11     6   ar
@<TRIPOS>MOLECULE
*****
 22 25 0 0 0
SMALL
GASTEIGER

@<TRIPOS>ATOM
      1 C          65.8463   93.2426   12.3984 C.3     1  UNL1        0.0849
      2 C          66.2936   92.6638   13.7080 C.3     1  UNL1        0.0159
      3 C          65.7460   91.3467   14.1719 C.3     1  UNL1        0.0444
      4 C          64.7511   90.6084   13.3263 C.ar    1  UNL1        0.0398
      5 C          64.3037   91.1872   12.0168 C.ar    1  UNL1        0.0478
      6 C          63.3185   90.2374   11.4026 C.ar    1  UNL1        0.0196
      7 C          62.5477   90.2835   10.1167 C.ar    1  UNL1        0.0016
      8 C          61.6152   89.1638    9.7607 C.ar    1  UNL1        0.0001
      9 C          61.4536   87.9980   10.6906 C.ar    1  UNL1        0.0015
     10 C          62.2245   87.9519   11.9765 C.ar    1  UNL1        0.0172
     11 C          63.1569   89.0716   12.3325 C.ar    1  UNL1        0.0598
     12 N          64.0423   89.3009   13.5214 N.ar    1  UNL1       -0.3285
     13 C          64.1925   88.3836   14.6988 C.3     1  UNL1        0.1301
     14 C          64.8513   92.5043   11.5529 C.2     1  UNL1        0.1756
     15 O          64.4040   93.0832   10.2433 O.2     1  UNL1       -0.2912
     16 C          66.3939   94.5598   11.9344 C.3     1  UNL1        0.1149
     17 C          68.1502   92.5101   10.1004 C.3     1  UNL1        0.0718
     18 C          67.5615   93.8137    9.6486 C.ar    1  UNL1        0.1208
     19 N          67.6767   94.4039    8.2744 N.ar    1  UNL1       -0.2293
     20 C          66.9406   95.7109    8.2682 C.ar    1  UNL1        0.1188
     21 C          66.3704   95.9284    9.6384 C.ar    1  UNL1        0.0977
     22 N          66.7542   94.7558   10.4916 N.ar    1  UNL1       -0.3132
@<TRIPOS>BOND
     1    17    18    1
     2    18    19   ar
     3    19    20   ar
     4    20    21   ar
     5    21    22   ar
     6    22    16    1
     7    16     1    1
     8     1     2    1
     9     2     3    1
    10     3     4    1
    11     4     5   ar
    12     5     6   ar
    13     6     7   ar
    14     7     8   ar
    15     8     9   ar
    16     9    10   ar
    17    10    11   ar
    18    11    12   ar
    19    12    13    1
    20     5    14    1
    21    14    15    2
    22    22    18   ar
    23    14     1    1
    24    12     4   ar
    25    11     6   ar
