@<TRIPOS>MOLECULE
*****
 28 30 0 0 0
SMALL
GASTEIGER

@<TRIPOS>ATOM
      1 C          65.3883   93.0996   10.7919 C.3     1  UNL1        0.1382
      2 N          65.0330   92.0701   11.8234 N.ar    1  UNL1       -0.2466
      3 C          65.9695   91.7952   12.9623 C.ar    1  UNL1        0.2671
      4 O          67.2615   92.5498   13.0698 O.2     1  UNL1       -0.2668
      5 C          65.6141   90.7658   13.9938 C.ar    1  UNL1        0.0935
      6 C          64.3222   90.0113   13.8864 C.ar    1  UNL1        0.1208
      7 N          63.3857   90.2862   12.7474 N.ar    1  UNL1       -0.2651
      8 C          63.7410   91.3156   11.7159 C.ar    1  UNL1        0.3350
      9 O          62.8044   91.5905   10.5769 O.2     1  UNL1       -0.2461
     10 N          63.9669   88.9818   14.9178 N.pl3   1  UNL1       -0.2930
     11 C          63.2358   89.3888   16.1628 C.3     1  UNL1        0.0922
     12 C          62.8804   88.3593   17.1943 C.3     1  UNL1        0.0229
     13 C          63.2561   86.9230   16.9808 C.3     1  UNL1        0.0190
     14 C          63.9872   86.5160   15.7359 C.3     1  UNL1        0.0709
     15 N          64.3630   85.0796   15.5224 N.3     1  UNL1       -0.3208
     16 C          64.3426   87.5455   14.7044 C.3     1  UNL1        0.1075
     17 H          64.8503   84.9844   14.6314 H       1  UNL1        0.1189
     18 H          63.5199   84.5055   15.5119 H       1  UNL1        0.1189
     19 C          62.0937   89.5316   12.6399 C.3     1  UNL1        0.1392
     20 C          61.7447   88.8196   11.3667 C.ar    1  UNL1        0.0124
     21 C          62.6094   87.6976   10.8735 C.ar    1  UNL1        0.0279
     22 C          62.2604   86.9856    9.6002 C.ar    1  UNL1        0.1399
     23 F          63.1251   85.8635    9.1071 F       1  UNL1       -0.2042
     24 C          61.0466   87.3956    8.8201 C.ar    1  UNL1        0.0303
     25 C          60.1818   88.5176    9.3133 C.ar    1  UNL1        0.0123
     26 C          60.5308   89.2297   10.5865 C.ar    1  UNL1        0.0664
     27 C          59.6661   90.3517   11.0796 C.1     1  UNL1        0.1002
     28 N          58.8013   91.4738   11.5728 N.1     1  UNL1       -0.1908
@<TRIPOS>BOND
     1     1     2    1
     2     2     3   ar
     3     3     4    2
     4     3     5   ar
     5     5     6   ar
     6     6    10    1
     7    10    11    1
     8    11    12    1
     9    12    13    1
    10    13    14    1
    11    14    15    1
    12    14    16    1
    13     6     7   ar
    14     7    19    1
    15    19    20    1
    16    20    21   ar
    17    21    22   ar
    18    22    23    1
    19    22    24   ar
    20    24    25   ar
    21    25    26   ar
    22    26    27    1
    23    27    28    3
    24     7     8   ar
    25     8     9    2
    26     8     2   ar
    27    16    10    1
    28    26    20   ar
    29    15    17    1
    30    15    18    1
@<TRIPOS>MOLECULE
*****
 28 30 0 0 0
SMALL
GASTEIGER

@<TRIPOS>ATOM
      1 C          65.3748   93.1603   11.7119 C.3     1  UNL1        0.1382
      2 N          65.0253   91.9985   12.5939 N.ar    1  UNL1       -0.2466
      3 C          65.4109   92.0145   14.0434 C.ar    1  UNL1        0.2671
      4 O          66.1460   93.1925   14.6109 O.2     1  UNL1       -0.2668
      5 C          65.0614   90.8527   14.9254 C.ar    1  UNL1        0.0935
      6 C          64.3263   89.6748   14.3580 C.ar    1  UNL1        0.1208
      7 N          63.9407   89.6587   12.9085 N.ar    1  UNL1       -0.2651
      8 C          64.2902   90.8205   12.0265 C.ar    1  UNL1        0.3350
      9 O          63.9046   90.8044   10.5769 O.2     1  UNL1       -0.2461
     10 N          63.9767   88.5129   15.2400 N.pl3   1  UNL1       -0.2930
     11 C          63.1770   88.7338   16.4895 C.3     1  UNL1        0.0922
     12 C          62.8274   87.5720   17.3716 C.3     1  UNL1        0.0229
     13 C          63.2777   86.1892   17.0040 C.3     1  UNL1        0.0190
     14 C          64.0775   85.9683   15.7544 C.3     1  UNL1        0.0709
     15 N          64.5278   84.5855   15.3868 N.3     1  UNL1       -0.3208
     16 C          64.4270   87.1301   14.8724 C.3     1  UNL1        0.1075
     17 H          65.0552   84.6203   14.5144 H       1  UNL1        0.1189
     18 H          63.7133   83.9831   15.2678 H       1  UNL1        0.1189
     19 C          63.2055   88.4807   12.3409 C.3     1  UNL1        0.1392
     20 C          61.8777   88.6769   11.6713 C.ar    1  UNL1        0.0124
     21 C          61.0817   89.9208   11.9342 C.ar    1  UNL1        0.0279
     22 C          59.7538   90.1170   11.2646 C.ar    1  UNL1        0.1399
     23 F          58.9578   91.3609   11.5274 F       1  UNL1       -0.2042
     24 C          59.2221   89.0693   10.3321 C.ar    1  UNL1        0.0303
     25 C          60.0181   87.8255   10.0692 C.ar    1  UNL1        0.0123
     26 C          61.3459   87.6292   10.7388 C.ar    1  UNL1        0.0664
     27 C          62.1419   86.3854   10.4759 C.1     1  UNL1        0.1002
     28 N          62.9380   85.1415   10.2130 N.1     1  UNL1       -0.1908
@<TRIPOS>BOND
     1     1     2    1
     2     2     3   ar
     3     3     4    2
     4     3     5   ar
     5     5     6   ar
     6     6    10    1
     7    10    11    1
     8    11    12    1
     9    12    13    1
    10    13    14    1
    11    14    15    1
    12    14    16    1
    13     6     7   ar
    14     7    19    1
    15    19    20    1
    16    20    21   ar
    17    21    22   ar
    18    22    23    1
    19    22    24   ar
    20    24    25   ar
    21    25    26   ar
    22    26    27    1
    23    27    28    3
    24     7     8   ar
    25     8     9    2
    26     8     2   ar
    27    16    10    1
    28    26    20   ar
    29    15    17    1
    30    15    18    1
@<TRIPOS>MOLECULE
*****
 28 30 0 0 0
SMALL
GASTEIGER

@<TRIPOS>ATOM
      1 C          63.4099   88.7137   16.7346 C.3     1  UNL1        0.1382
      2 N          63.2509   87.3247   16.1912 N.ar    1  UNL1       -0.2466
      3 C          62.7363   86.2277   17.0754 C.ar    1  UNL1        0.2671
      4 O          62.3807   86.5198   18.5031 O.2     1  UNL1       -0.2668
      5 C          62.5774   84.8387   16.5320 C.ar    1  UNL1        0.0935
      6 C          62.9330   84.5466   15.1044 C.ar    1  UNL1        0.1208
      7 N          63.4475   85.6435   14.2202 N.ar    1  UNL1       -0.2651
      8 C          63.6065   87.0326   14.7636 C.ar    1  UNL1        0.3350
      9 O          64.1211   88.1295   13.8793 O.2     1  UNL1       -0.2461
     10 N          62.7740   83.1575   14.5610 N.pl3   1  UNL1       -0.2930
     11 C          63.9366   82.4696   13.9092 C.3     1  UNL1        0.0922
     12 C          63.7777   81.0805   13.3657 C.3     1  UNL1        0.0229
     13 C          62.4561   80.3795   13.4741 C.3     1  UNL1        0.0190
     14 C          61.2934   81.0674   14.1259 C.3     1  UNL1        0.0709
     15 N          59.9717   80.3664   14.2343 N.3     1  UNL1       -0.3208
     16 C          61.4524   82.4565   14.6693 C.3     1  UNL1        0.1075
     17 H          59.3006   80.9763   14.7013 H       1  UNL1        0.1189
     18 H          60.0851   79.5087   14.7747 H       1  UNL1        0.1189
     19 C          63.8032   85.3515   12.7924 C.3     1  UNL1        0.1392
     20 C          62.8233   85.6554   11.6982 C.ar    1  UNL1        0.0124
     21 C          61.8613   86.7964   11.8485 C.ar    1  UNL1        0.0279
     22 C          60.8814   87.1003   10.7542 C.ar    1  UNL1        0.1399
     23 F          59.9193   88.2413   10.9045 F       1  UNL1       -0.2042
     24 C          60.8636   86.2633    9.5096 C.ar    1  UNL1        0.0303
     25 C          61.8257   85.1224    9.3592 C.ar    1  UNL1        0.0123
     26 C          62.8055   84.8184   10.4535 C.ar    1  UNL1        0.0664
     27 C          63.7676   83.6774   10.3032 C.1     1  UNL1        0.1002
     28 N          64.7297   82.5365   10.1528 N.1     1  UNL1       -0.1908
@<TRIPOS>BOND
     1     1     2    1
     2     2     3   ar
     3     3     4    2
     4     3     5   ar
     5     5     6   ar
     6     6    10    1
     7    10    11    1
     8    11    12    1
     9    12    13    1
    10    13    14    1
    11    14    15    1
    12    14    16    1
    13     6     7   ar
    14     7    19    1
    15    19    20    1
    16    20    21   ar
    17    21    22   ar
    18    22    23    1
    19    22    24   ar
    20    24    25   ar
    21    25    26   ar
    22    26    27    1
    23    27    28    3
    24     7     8   ar
    25     8     9    2
    26     8     2   ar
    27    16    10    1
    28    26    20   ar
    29    15    17    1
    30    15    18    1
@<TRIPOS>MOLECULE
*****
 28 30 0 0 0
SMALL
GASTEIGER

@<TRIPOS>ATOM
      1 C          61.7992   88.7189   10.4931 C.3     1  UNL1        0.1382
      2 N          62.7938   89.4015   11.3847 N.ar    1  UNL1       -0.2466
      3 C          63.1593   90.8356   11.1408 C.ar    1  UNL1        0.2671
      4 O          62.5302   91.5873   10.0052 O.2     1  UNL1       -0.2668
      5 C          64.1538   91.5182   12.0324 C.ar    1  UNL1        0.0935
      6 C          64.7829   90.7667   13.1679 C.ar    1  UNL1        0.1208
      7 N          64.4173   89.3325   13.4118 N.ar    1  UNL1       -0.2651
      8 C          63.4228   88.6499   12.5202 C.ar    1  UNL1        0.3350
      9 O          63.0573   87.2157   12.7642 O.2     1  UNL1       -0.2461
     10 N          65.7774   91.4493   14.0595 N.pl3   1  UNL1       -0.2930
     11 C          65.3339   92.0362   15.3667 C.3     1  UNL1        0.0922
     12 C          66.3284   92.7188   16.2583 C.3     1  UNL1        0.0229
     13 C          67.7665   92.8145   15.8426 C.3     1  UNL1        0.0190
     14 C          68.2100   92.2276   14.5355 C.3     1  UNL1        0.0709
     15 N          69.6481   92.3233   14.1198 N.3     1  UNL1       -0.3208
     16 C          67.2155   91.5450   13.6439 C.3     1  UNL1        0.1075
     17 H          69.7701   91.8751   13.2117 H       1  UNL1        0.1189
     18 H          70.2338   91.8553   14.8114 H       1  UNL1        0.1189
     19 C          65.0464   88.5809   14.5474 C.3     1  UNL1        0.1392
     20 C          64.2223   87.6328   15.3671 C.ar    1  UNL1        0.0124
     21 C          64.3102   86.1559   15.1197 C.ar    1  UNL1        0.0279
     22 C          63.4860   85.2078   15.9394 C.ar    1  UNL1        0.1399
     23 F          63.5739   83.7310   15.6920 F       1  UNL1       -0.2042
     24 C          62.5740   85.7366   17.0065 C.ar    1  UNL1        0.0303
     25 C          62.4861   87.2134   17.2538 C.ar    1  UNL1        0.0123
     26 C          63.3102   88.1615   16.4342 C.ar    1  UNL1        0.0664
     27 C          63.2223   89.6384   16.6815 C.1     1  UNL1        0.1002
     28 N          63.1344   91.1152   16.9289 N.1     1  UNL1       -0.1908
@<TRIPOS>BOND
     1     1     2    1
     2     2     3   ar
     3     3     4    2
     4     3     5   ar
     5     5     6   ar
     6     6    10    1
     7    10    11    1
     8    11    12    1
     9    12    13    1
    10    13    14    1
    11    14    15    1
    12    14    16    1
    13     6     7   ar
    14     7    19    1
    15    19    20    1
    16    20    21   ar
    17    21    22   ar
    18    22    23    1
    19    22    24   ar
    20    24    25   ar
    21    25    26   ar
    22    26    27    1
    23    27    28    3
    24     7     8   ar
    25     8     9    2
    26     8     2   ar
    27    16    10    1
    28    26    20   ar
    29    15    17    1
    30    15    18    1
@<TRIPOS>MOLECULE
*****
 28 30 0 0 0
SMALL
GASTEIGER

@<TRIPOS>ATOM
      1 C          59.9255   88.9980    7.9985 C.3     1  UNL1        0.1382
      2 N          60.7090   88.3968    9.1275 N.ar    1  UNL1       -0.2466
      3 C          61.1618   86.9690    9.0495 C.ar    1  UNL1        0.2671
      4 O          60.8310   86.1421    7.8424 O.2     1  UNL1       -0.2668
      5 C          61.9453   86.3678   10.1786 C.ar    1  UNL1        0.0935
      6 C          62.2760   87.1946   11.3856 C.ar    1  UNL1        0.1208
      7 N          61.8233   88.6225   11.4636 N.ar    1  UNL1       -0.2651
      8 C          61.0398   89.2236   10.3346 C.ar    1  UNL1        0.3350
      9 O          60.5870   90.6516   10.4126 O.2     1  UNL1       -0.2461
     10 N          63.0595   86.5934   12.5147 N.pl3   1  UNL1       -0.2930
     11 C          63.8093   87.4810   13.4634 C.3     1  UNL1        0.0922
     12 C          64.5928   86.8799   14.5924 C.3     1  UNL1        0.0229
     13 C          64.6265   85.3912   14.7728 C.3     1  UNL1        0.0190
     14 C          63.8768   84.5036   13.8241 C.3     1  UNL1        0.0709
     15 N          63.9105   83.0148   14.0044 N.3     1  UNL1       -0.3208
     16 C          63.0933   85.1047   12.6950 C.3     1  UNL1        0.1075
     17 H          63.3506   82.5713   13.2762 H       1  UNL1        0.1189
     18 H          63.5299   82.7745   14.9197 H       1  UNL1        0.1189
     19 C          62.1540   89.4493   12.6707 C.3     1  UNL1        0.1392
     20 C          63.2781   90.4409   12.6155 C.ar    1  UNL1        0.0124
     21 C          63.7209   91.0000   11.2959 C.ar    1  UNL1        0.0279
     22 C          64.8450   91.9917   11.2407 C.ar    1  UNL1        0.1399
     23 F          65.2878   92.5507    9.9210 F       1  UNL1       -0.2042
     24 C          65.5262   92.4243   12.5050 C.ar    1  UNL1        0.0303
     25 C          65.0834   91.8653   13.8247 C.ar    1  UNL1        0.0123
     26 C          63.9594   90.8736   13.8799 C.ar    1  UNL1        0.0664
     27 C          63.5166   90.3146   15.1995 C.1     1  UNL1        0.1002
     28 N          63.0738   89.7556   16.5192 N.1     1  UNL1       -0.1908
@<TRIPOS>BOND
     1     1     2    1
     2     2     3   ar
     3     3     4    2
     4     3     5   ar
     5     5     6   ar
     6     6    10    1
     7    10    11    1
     8    11    12    1
     9    12    13    1
    10    13    14    1
    11    14    15    1
    12    14    16    1
    13     6     7   ar
    14     7    19    1
    15    19    20    1
    16    20    21   ar
    17    21    22   ar
    18    22    23    1
    19    22    24   ar
    20    24    25   ar
    21    25    26   ar
    22    26    27    1
    23    27    28    3
    24     7     8   ar
    25     8     9    2
    26     8     2   ar
    27    16    10    1
    28    26    20   ar
    29    15    17    1
    30    15    18    1
@<TRIPOS>MOLECULE
*****
 28 30 0 0 0
SMALL
GASTEIGER

@<TRIPOS>ATOM
      1 C          60.1617   87.7549   10.1554 C.3     1  UNL1        0.1382
      2 N          61.1619   88.5218   10.9687 N.ar    1  UNL1       -0.2466
      3 C          61.1235   90.0212   10.9851 C.ar    1  UNL1        0.2671
      4 O          60.0850   90.7538   10.1883 O.2     1  UNL1       -0.2668
      5 C          62.1237   90.7882   11.7984 C.ar    1  UNL1        0.0935
      6 C          63.1622   90.0557   12.5952 C.ar    1  UNL1        0.1208
      7 N          63.2006   88.5563   12.5787 N.ar    1  UNL1       -0.2651
      8 C          62.2004   87.7894   11.7655 C.ar    1  UNL1        0.3350
      9 O          62.2387   86.2899   11.7490 O.2     1  UNL1       -0.2461
     10 N          64.1624   90.8226   13.4085 N.pl3   1  UNL1       -0.2930
     11 C          65.4924   91.1834   12.8160 C.3     1  UNL1        0.0922
     12 C          66.4926   91.9503   13.6293 C.3     1  UNL1        0.0229
     13 C          66.1628   92.3565   15.0350 C.3     1  UNL1        0.0190
     14 C          64.8329   91.9958   15.6275 C.3     1  UNL1        0.0709
     15 N          64.5031   92.4020   17.0334 N.3     1  UNL1       -0.3208
     16 C          63.8327   91.2288   14.8143 C.3     1  UNL1        0.1075
     17 H          63.5658   92.0766   17.2703 H       1  UNL1        0.1189
     18 H          64.5400   93.4183   17.1111 H       1  UNL1        0.1189
     19 C          64.2391   87.8238   13.3756 C.3     1  UNL1        0.1392
     20 C          63.8822   87.2283   14.7052 C.ar    1  UNL1        0.0124
     21 C          63.5797   88.1228   15.8707 C.ar    1  UNL1        0.0279
     22 C          63.2227   87.5273   17.2004 C.ar    1  UNL1        0.1399
     23 F          62.9202   88.4218   18.3658 F       1  UNL1       -0.2042
     24 C          63.1684   86.0373   17.3645 C.ar    1  UNL1        0.0303
     25 C          63.4710   85.1428   16.1991 C.ar    1  UNL1        0.0123
     26 C          63.8279   85.7383   14.8694 C.ar    1  UNL1        0.0664
     27 C          64.1304   84.8438   13.7039 C.1     1  UNL1        0.1002
     28 N          64.4330   83.9493   12.5385 N.1     1  UNL1       -0.1908
@<TRIPOS>BOND
     1     1     2    1
     2     2     3   ar
     3     3     4    2
     4     3     5   ar
     5     5     6   ar
     6     6    10    1
     7    10    11    1
     8    11    12    1
     9    12    13    1
    10    13    14    1
    11    14    15    1
    12    14    16    1
    13     6     7   ar
    14     7    19    1
    15    19    20    1
    16    20    21   ar
    17    21    22   ar
    18    22    23    1
    19    22    24   ar
    20    24    25   ar
    21    25    26   ar
    22    26    27    1
    23    27    28    3
    24     7     8   ar
    25     8     9    2
    26     8     2   ar
    27    16    10    1
    28    26    20   ar
    29    15    17    1
    30    15    18    1
@<TRIPOS>MOLECULE
*****
 28 30 0 0 0
SMALL
GASTEIGER

@<TRIPOS>ATOM
      1 C          59.9575   86.3829    8.5454 C.3     1  UNL1        0.1382
      2 N          60.8242   87.1329    9.5130 N.ar    1  UNL1       -0.2466
      3 C          60.9704   88.6208    9.3913 C.ar    1  UNL1        0.2671
      4 O          60.2500   89.3586    8.3019 O.2     1  UNL1       -0.2668
      5 C          61.8371   89.3709   10.3590 C.ar    1  UNL1        0.0935
      6 C          62.5574   88.6331   11.4483 C.ar    1  UNL1        0.1208
      7 N          62.4111   87.1452   11.5700 N.ar    1  UNL1       -0.2651
      8 C          61.5445   86.3952   10.6024 C.ar    1  UNL1        0.3350
      9 O          61.3983   84.9072   10.7241 O.2     1  UNL1       -0.2461
     10 N          63.4240   89.3832   12.4160 N.pl3   1  UNL1       -0.2930
     11 C          63.8330   88.7424   13.7090 C.3     1  UNL1        0.0922
     12 C          64.6997   89.4924   14.6767 C.3     1  UNL1        0.0229
     13 C          65.1573   90.8833   14.3513 C.3     1  UNL1        0.0190
     14 C          64.7483   91.5241   13.0582 C.3     1  UNL1        0.0709
     15 N          65.2059   92.9151   12.7328 N.3     1  UNL1       -0.3208
     16 C          63.8817   90.7741   12.0906 C.3     1  UNL1        0.1075
     17 H          64.8375   93.1899   11.8222 H       1  UNL1        0.1189
     18 H          66.2253   92.9408   12.7089 H       1  UNL1        0.1189
     19 C          63.1315   86.4074   12.6594 C.3     1  UNL1        0.1392
     20 C          63.3415   84.9262   12.5501 C.ar    1  UNL1        0.0124
     21 C          63.8893   84.3378   11.2837 C.ar    1  UNL1        0.0279
     22 C          64.0993   82.8566   11.1744 C.ar    1  UNL1        0.1399
     23 F          64.6471   82.2682    9.9080 F       1  UNL1       -0.2042
     24 C          63.7614   81.9638   12.3314 C.ar    1  UNL1        0.0303
     25 C          63.2136   82.5522   13.5978 C.ar    1  UNL1        0.0123
     26 C          63.0036   84.0333   13.7071 C.ar    1  UNL1        0.0664
     27 C          62.4558   84.6217   14.9735 C.1     1  UNL1        0.1002
     28 N          61.9080   85.2101   16.2399 N.1     1  UNL1       -0.1908
@<TRIPOS>BOND
     1     1     2    1
     2     2     3   ar
     3     3     4    2
     4     3     5   ar
     5     5     6   ar
     6     6    10    1
     7    10    11    1
     8    11    12    1
     9    12    13    1
    10    13    14    1
    11    14    15    1
    12    14    16    1
    13     6     7   ar
    14     7    19    1
    15    19    20    1
    16    20    21   ar
    17    21    22   ar
    18    22    23    1
    19    22    24   ar
    20    24    25   ar
    21    25    26   ar
    22    26    27    1
    23    27    28    3
    24     7     8   ar
    25     8     9    2
    26     8     2   ar
    27    16    10    1
    28    26    20   ar
    29    15    17    1
    30    15    18    1
@<TRIPOS>MOLECULE
*****
 28 30 0 0 0
SMALL
GASTEIGER

@<TRIPOS>ATOM
      1 C          62.7195   82.9968   13.2712 C.3     1  UNL1        0.1382
      2 N          62.9995   84.4702   13.2474 N.ar    1  UNL1       -0.2466
      3 C          63.5383   85.1511   14.4705 C.ar    1  UNL1        0.2671
      4 O          63.7972   84.3584   15.7175 O.2     1  UNL1       -0.2668
      5 C          63.8183   86.6245   14.4468 C.ar    1  UNL1        0.0935
      6 C          63.5594   87.4171   13.1999 C.ar    1  UNL1        0.1208
      7 N          63.0206   86.7363   11.9768 N.ar    1  UNL1       -0.2651
      8 C          62.7406   85.2628   12.0006 C.ar    1  UNL1        0.3350
      9 O          62.2018   84.5820   10.7773 O.2     1  UNL1       -0.2461
     10 N          63.8394   88.8906   13.1762 N.pl3   1  UNL1       -0.2930
     11 C          63.3095   89.7367   12.0568 C.3     1  UNL1        0.0922
     12 C          63.5895   91.2102   12.0330 C.3     1  UNL1        0.0229
     13 C          64.3994   91.8375   13.1287 C.3     1  UNL1        0.0190
     14 C          64.9293   90.9913   14.2481 C.3     1  UNL1        0.0709
     15 N          65.7392   91.6186   15.3439 N.3     1  UNL1       -0.3208
     16 C          64.6493   89.5178   14.2719 C.3     1  UNL1        0.1075
     17 H          66.0153   90.9021   16.0154 H       1  UNL1        0.1189
     18 H          65.1801   92.3294   15.8157 H       1  UNL1        0.1189
     19 C          62.7617   87.5289   10.7299 C.3     1  UNL1        0.1392
     20 C          61.7502   87.0482    9.7321 C.ar    1  UNL1        0.0124
     21 C          62.1848   86.2050    8.5701 C.ar    1  UNL1        0.0279
     22 C          61.1732   85.7243    7.5723 C.ar    1  UNL1        0.1399
     23 F          61.6078   84.8812    6.4103 F       1  UNL1       -0.2042
     24 C          59.7269   86.0868    7.7365 C.ar    1  UNL1        0.0303
     25 C          59.2923   86.9299    8.8985 C.ar    1  UNL1        0.0123
     26 C          60.3038   87.4106    9.8963 C.ar    1  UNL1        0.0664
     27 C          59.8692   88.2538   11.0582 C.1     1  UNL1        0.1002
     28 N          59.4345   89.0969   12.2202 N.1     1  UNL1       -0.1908
@<TRIPOS>BOND
     1     1     2    1
     2     2     3   ar
     3     3     4    2
     4     3     5   ar
     5     5     6   ar
     6     6    10    1
     7    10    11    1
     8    11    12    1
     9    12    13    1
    10    13    14    1
    11    14    15    1
    12    14    16    1
    13     6     7   ar
    14     7    19    1
    15    19    20    1
    16    20    21   ar
    17    21    22   ar
    18    22    23    1
    19    22    24   ar
    20    24    25   ar
    21    25    26   ar
    22    26    27    1
    23    27    28    3
    24     7     8   ar
    25     8     9    2
    26     8     2   ar
    27    16    10    1
    28    26    20   ar
    29    15    17    1
    30    15    18    1
@<TRIPOS>MOLECULE
*****
 28 30 0 0 0
SMALL
GASTEIGER

@<TRIPOS>ATOM
      1 C          63.5930   91.2210   12.5643 C.3     1  UNL1        0.1382
      2 N          63.5241   89.7478   12.8380 N.ar    1  UNL1       -0.2466
      3 C          64.3820   89.1431   13.9096 C.ar    1  UNL1        0.2671
      4 O          65.3088   90.0116   14.7076 O.2     1  UNL1       -0.2668
      5 C          64.3131   87.6698   14.1832 C.ar    1  UNL1        0.0935
      6 C          63.3863   86.8013   13.3853 C.ar    1  UNL1        0.1208
      7 N          62.5285   87.4060   12.3136 N.ar    1  UNL1       -0.2651
      8 C          62.5974   88.8793   12.0400 C.ar    1  UNL1        0.3350
      9 O          61.7395   89.4839   10.9683 O.2     1  UNL1       -0.2461
     10 N          63.3175   85.3281   13.6589 N.pl3   1  UNL1       -0.2930
     11 C          62.3439   84.7976   14.6691 C.3     1  UNL1        0.0922
     12 C          62.2750   83.3244   14.9428 C.3     1  UNL1        0.0229
     13 C          63.1797   82.3817   14.2062 C.3     1  UNL1        0.0190
     14 C          64.1533   82.9121   13.1959 C.3     1  UNL1        0.0709
     15 N          65.0581   81.9694   12.4592 N.3     1  UNL1       -0.3208
     16 C          64.2222   84.3853   12.9223 C.3     1  UNL1        0.1075
     17 H          65.6490   82.4973   11.8170 H       1  UNL1        0.1189
     18 H          64.4961   81.3007   11.9324 H       1  UNL1        0.1189
     19 C          61.6017   86.5375   11.5156 C.3     1  UNL1        0.1392
     20 C          62.1019   85.8374   10.2870 C.ar    1  UNL1        0.0124
     21 C          63.0878   84.7140   10.4128 C.ar    1  UNL1        0.0279
     22 C          63.5880   84.0139    9.1841 C.ar    1  UNL1        0.1399
     23 F          64.5739   82.8904    9.3100 F       1  UNL1       -0.2042
     24 C          63.1022   84.4371    7.8296 C.ar    1  UNL1        0.0303
     25 C          62.1162   85.5605    7.7037 C.ar    1  UNL1        0.0123
     26 C          61.6161   86.2607    8.9323 C.ar    1  UNL1        0.0664
     27 C          60.6301   87.3841    8.8065 C.1     1  UNL1        0.1002
     28 N          59.6441   88.5075    8.6806 N.1     1  UNL1       -0.1908
@<TRIPOS>BOND
     1     1     2    1
     2     2     3   ar
     3     3     4    2
     4     3     5   ar
     5     5     6   ar
     6     6    10    1
     7    10    11    1
     8    11    12    1
     9    12    13    1
    10    13    14    1
    11    14    15    1
    12    14    16    1
    13     6     7   ar
    14     7    19    1
    15    19    20    1
    16    20    21   ar
    17    21    22   ar
    18    22    23    1
    19    22    24   ar
    20    24    25   ar
    21    25    26   ar
    22    26    27    1
    23    27    28    3
    24     7     8   ar
    25     8     9    2
    26     8     2   ar
    27    16    10    1
    28    26    20   ar
    29    15    17    1
    30    15    18    1
