@<TRIPOS>MOLECULE
*****
 35 38 0 0 0
SMALL
GASTEIGER

@<TRIPOS>ATOM
      1 C          63.6550   89.1909   13.5860 C.2     1  UNL1        0.2320
      2 O          63.6601   87.7475   13.1780 O.2     1  UNL1       -0.2744
      3 N          62.5800   90.1085   13.0835 N.am    1  UNL1       -0.2639
      4 H          62.5766   91.0559   13.3513 H       1  UNL1        0.1567
      5 C          61.5102   89.5827   12.1731 C.ar    1  UNL1        0.1655
      6 N          61.7195   88.6681   11.0027 N.ar    1  UNL1       -0.2239
      7 C          60.3820   88.3992   10.3794 C.ar    1  UNL1        0.0913
      8 C          59.3459   89.1477   11.1645 C.ar    1  UNL1        0.0573
      9 S          60.0432   89.8791   12.2731 S.2     1  UNL1       -0.0508
     10 C          60.1254   87.5339    9.1813 C.ar    1  UNL1        0.0403
     11 C          58.8639   87.5024    8.3704 C.ar    1  UNL1        0.1021
     12 N          59.0442   86.4972    7.2717 N.ar    1  UNL1       -0.2269
     13 C          60.4171   85.9074    7.4037 C.ar    1  UNL1        0.1406
     14 N          61.1450   84.8697    6.6017 N.ar    1  UNL1       -0.3374
     15 C          62.5412   84.4728    6.9799 C.ar    1  UNL1        0.0735
     16 C          63.2094   85.1136    8.1601 C.ar    1  UNL1        0.0186
     17 C          62.4815   86.1512    8.9621 C.ar    1  UNL1        0.0046
     18 C          61.0853   86.5482    8.5839 C.ar    1  UNL1        0.0370
     19 H          60.7065   84.4492    5.8271 H       1  UNL1        0.1674
     20 C          64.7248   89.7168   14.4965 C.3     1  UNL1        0.1117
     21 C          65.8266   93.0393   12.6263 C.ar    1  UNL1        0.1216
     22 C          66.5472   93.7588   13.7276 C.ar    1  UNL1        0.0199
     23 C          66.6604   93.1311   15.0852 C.ar    1  UNL1        0.0011
     24 C          66.0529   91.7837   15.3415 C.ar    1  UNL1       -0.0037
     25 C          65.3322   91.0641   14.2402 C.ar    1  UNL1       -0.0117
     26 C          65.2191   91.6919   12.8825 C.ar    1  UNL1        0.0161
     27 S          65.7134   93.6670   11.2687 S.O2    1  UNL1        0.0603
     28 O          66.1562   94.9815   11.8396 O.2     1  UNL1       -0.1530
     29 O          65.2706   92.3525   10.6978 O.2     1  UNL1       -0.1530
     30 N          65.6002   94.2948    9.9111 N.3     1  UNL1       -0.1768
     31 H          65.6246   93.5341    9.2320 H       1  UNL1        0.1489
     32 C          66.6145   95.3059    9.4654 C.3     1  UNL1        0.1234
     33 C          67.8977   94.8529    8.8342 C.3     1  UNL1        0.1610
     34 C          68.7551   92.4265    9.1916 C.3     1  UNL1        0.1742
     35 O          68.7857   93.8817    9.5542 O.3     1  UNL1       -0.3496
@<TRIPOS>BOND
     1    34    35    1
     2    35    33    1
     3    33    32    1
     4    32    30    1
     5    30    27    1
     6    27    28    2
     7    27    29    2
     8    27    21    1
     9    21    22   ar
    10    22    23   ar
    11    23    24   ar
    12    24    25   ar
    13    25    20    1
    14    20     1    1
    15     1     2    2
    16     1     3   am
    17     3     5    1
    18     5     6   ar
    19     6     7   ar
    20     7    10    1
    21    10    11   ar
    22    11    12   ar
    23    12    13   ar
    24    13    14   ar
    25    14    15   ar
    26    15    16   ar
    27    16    17   ar
    28    17    18   ar
    29     7     8   ar
    30     8     9   ar
    31    25    26   ar
    32    26    21   ar
    33     9     5   ar
    34    18    10   ar
    35    18    13    1
    36    30    31    1
    37     3     4    1
    38    14    19    1
@<TRIPOS>MOLECULE
*****
 35 38 0 0 0
SMALL
GASTEIGER

@<TRIPOS>ATOM
      1 C          63.7579   88.9538   13.9038 C.2     1  UNL1        0.2320
      2 O          64.2940   87.6444   14.4018 O.2     1  UNL1       -0.2744
      3 N          62.9357   88.9995   12.6501 N.am    1  UNL1       -0.2639
      4 H          62.5839   89.8589   12.3232 H       1  UNL1        0.1567
      5 C          62.6495   87.7359   11.8944 C.ar    1  UNL1        0.1655
      6 N          63.2086   86.3784   12.2024 N.ar    1  UNL1       -0.2239
      7 C          62.6586   85.4113   11.1964 C.ar    1  UNL1        0.0913
      8 C          61.7596   86.1710   10.2665 C.ar    1  UNL1        0.0573
      9 S          61.7540   87.6076   10.6979 S.2     1  UNL1       -0.0508
     10 C          62.9555   83.9424   11.1316 C.ar    1  UNL1        0.0403
     11 C          63.5885   83.2209    9.9789 C.ar    1  UNL1        0.1021
     12 N          63.6957   81.7697   10.3430 N.ar    1  UNL1       -0.2269
     13 C          63.1289   81.5943   11.7207 C.ar    1  UNL1        0.1406
     14 N          62.9703   80.3854   12.5944 N.ar    1  UNL1       -0.3374
     15 C          62.3542   80.5194   13.9554 C.ar    1  UNL1        0.0735
     16 C          61.8967   81.8622   14.4428 C.ar    1  UNL1        0.0186
     17 C          62.0554   83.0711   13.5691 C.ar    1  UNL1        0.0046
     18 C          62.6715   82.9372   12.2081 C.ar    1  UNL1        0.0370
     19 H          63.2706   79.5041   12.2745 H       1  UNL1        0.1674
     20 C          64.0441   90.2176   14.6595 C.3     1  UNL1        0.1117
     21 C          65.9869   92.9233   12.5021 C.ar    1  UNL1        0.1216
     22 C          67.2871   92.9990   13.2463 C.ar    1  UNL1        0.0199
     23 C          67.5063   92.1475   14.4616 C.ar    1  UNL1        0.0011
     24 C          66.4253   91.2203   14.9327 C.ar    1  UNL1       -0.0037
     25 C          65.1251   91.1447   14.1884 C.ar    1  UNL1       -0.0117
     26 C          64.9059   91.9962   12.9731 C.ar    1  UNL1        0.0161
     27 S          65.7677   93.7748   11.2868 S.O2    1  UNL1        0.0603
     28 O          65.0625   92.6342   10.6148 O.2     1  UNL1       -0.1530
     29 O          66.4730   94.9155   11.9588 O.2     1  UNL1       -0.1530
     30 N          65.5485   94.6263   10.0715 N.3     1  UNL1       -0.1768
     31 H          65.2383   94.0022    9.3268 H       1  UNL1        0.1489
     32 C          66.6777   95.4400    9.5122 C.3     1  UNL1        0.1234
     33 C          67.7973   94.7639    8.7777 C.3     1  UNL1        0.1610
     34 C          68.7914   92.4281    9.3306 C.3     1  UNL1        0.1742
     35 O          68.7812   93.9152    9.5270 O.3     1  UNL1       -0.3496
@<TRIPOS>BOND
     1    34    35    1
     2    35    33    1
     3    33    32    1
     4    32    30    1
     5    30    27    1
     6    27    28    2
     7    27    29    2
     8    27    21    1
     9    21    22   ar
    10    22    23   ar
    11    23    24   ar
    12    24    25   ar
    13    25    20    1
    14    20     1    1
    15     1     2    2
    16     1     3   am
    17     3     5    1
    18     5     6   ar
    19     6     7   ar
    20     7    10    1
    21    10    11   ar
    22    11    12   ar
    23    12    13   ar
    24    13    14   ar
    25    14    15   ar
    26    15    16   ar
    27    16    17   ar
    28    17    18   ar
    29     7     8   ar
    30     8     9   ar
    31    25    26   ar
    32    26    21   ar
    33     9     5   ar
    34    18    10   ar
    35    18    13    1
    36    30    31    1
    37     3     4    1
    38    14    19    1
@<TRIPOS>MOLECULE
*****
 35 38 0 0 0
SMALL
GASTEIGER

@<TRIPOS>ATOM
      1 C          63.5642   89.6529   14.6084 C.2     1  UNL1        0.2320
      2 O          62.1222   89.9005   14.2778 O.2     1  UNL1       -0.2744
      3 N          64.2752   88.4690   14.0229 N.am    1  UNL1       -0.2639
      4 H          65.2216   88.3064   14.2399 H       1  UNL1        0.1567
      5 C          63.5444   87.5329   13.1068 C.ar    1  UNL1        0.1655
      6 N          62.7266   87.9271   11.9127 N.ar    1  UNL1       -0.2239
      7 C          62.1797   86.6760   11.2918 C.ar    1  UNL1        0.0913
      8 C          62.6595   85.5084   12.1021 C.ar    1  UNL1        0.0573
      9 S          63.5028   86.0380   13.2238 S.2     1  UNL1       -0.0508
     10 C          61.3064   86.6049   10.0743 C.ar    1  UNL1        0.0403
     11 C          59.9596   87.2461    9.9166 C.ar    1  UNL1        0.1021
     12 N          59.4475   86.9175    8.5456 N.ar    1  UNL1       -0.2269
     13 C          60.4778   86.0732    7.8559 C.ar    1  UNL1        0.1406
     14 N          60.5182   85.4554    6.4896 N.ar    1  UNL1       -0.3374
     15 C          61.7075   84.6444    6.0682 C.ar    1  UNL1        0.0735
     16 C          62.8565   84.4512    7.0130 C.ar    1  UNL1        0.0186
     17 C          62.8160   85.0690    8.3792 C.ar    1  UNL1        0.0046
     18 C          61.6267   85.8800    8.8007 C.ar    1  UNL1        0.0370
     19 H          59.7641   85.5823    5.8695 H       1  UNL1        0.1674
     20 C          64.2951   90.5890   15.5246 C.3     1  UNL1        0.1117
     21 C          65.9776   93.1046   12.9573 C.ar    1  UNL1        0.1216
     22 C          67.0396   93.7208   13.8189 C.ar    1  UNL1        0.0199
     23 C          67.1868   93.2932   15.2491 C.ar    1  UNL1        0.0011
     24 C          66.2719   92.2492   15.8177 C.ar    1  UNL1       -0.0037
     25 C          65.2099   91.6329   14.9560 C.ar    1  UNL1       -0.0117
     26 C          65.0628   92.0607   13.5258 C.ar    1  UNL1        0.0161
     27 S          65.8304   93.5323   11.5271 S.O2    1  UNL1        0.0603
     28 O          65.5202   92.1178   11.1361 O.2     1  UNL1       -0.1530
     29 O          66.1407   94.9468   11.9182 O.2     1  UNL1       -0.1530
     30 N          65.6832   93.9599   10.0969 N.3     1  UNL1       -0.1768
     31 H          65.8866   93.1419    9.5226 H       1  UNL1        0.1489
     32 C          66.5188   95.0842    9.5605 C.3     1  UNL1        0.1234
     33 C          67.8506   94.7957    8.9333 C.3     1  UNL1        0.1610
     34 C          68.7959   92.3897    9.1934 C.3     1  UNL1        0.1742
     35 O          68.7972   93.8361    9.5911 O.3     1  UNL1       -0.3496
@<TRIPOS>BOND
     1    34    35    1
     2    35    33    1
     3    33    32    1
     4    32    30    1
     5    30    27    1
     6    27    28    2
     7    27    29    2
     8    27    21    1
     9    21    22   ar
    10    22    23   ar
    11    23    24   ar
    12    24    25   ar
    13    25    20    1
    14    20     1    1
    15     1     2    2
    16     1     3   am
    17     3     5    1
    18     5     6   ar
    19     6     7   ar
    20     7    10    1
    21    10    11   ar
    22    11    12   ar
    23    12    13   ar
    24    13    14   ar
    25    14    15   ar
    26    15    16   ar
    27    16    17   ar
    28    17    18   ar
    29     7     8   ar
    30     8     9   ar
    31    25    26   ar
    32    26    21   ar
    33     9     5   ar
    34    18    10   ar
    35    18    13    1
    36    30    31    1
    37     3     4    1
    38    14    19    1
@<TRIPOS>MOLECULE
*****
 35 38 0 0 0
SMALL
GASTEIGER

@<TRIPOS>ATOM
      1 C          64.2609   85.9654   15.3537 C.2     1  UNL1        0.2320
      2 O          65.6884   86.3499   15.1001 O.2     1  UNL1       -0.2744
      3 N          63.2365   87.0255   15.6308 N.am    1  UNL1       -0.2639
      4 H          62.2996   86.7731   15.7973 H       1  UNL1        0.1567
      5 C          63.6396   88.4700   15.6545 C.ar    1  UNL1        0.1655
      6 N          64.6534   89.1173   14.7583 N.ar    1  UNL1       -0.2239
      7 C          64.7401   90.5683   15.1283 C.ar    1  UNL1        0.0913
      8 C          63.7798   90.8179   16.2533 C.ar    1  UNL1        0.0573
      9 S          63.0997   89.5211   16.5785 S.2     1  UNL1       -0.0508
     10 C          65.6306   91.5904   14.4862 C.ar    1  UNL1        0.0403
     11 C          66.7661   92.3118   15.1497 C.ar    1  UNL1        0.1021
     12 N          67.3793   93.2377   14.1414 N.ar    1  UNL1       -0.2269
     13 C          66.6228   93.0886   12.8547 C.ar    1  UNL1        0.1406
     14 N          66.7783   93.7483   11.5167 N.ar    1  UNL1       -0.3374
     15 C          65.8532   93.3899   10.3917 C.ar    1  UNL1        0.0735
     16 C          64.7725   92.3717   10.6048 C.ar    1  UNL1        0.0186
     17 C          64.6169   91.7120   11.9429 C.ar    1  UNL1        0.0046
     18 C          65.5420   92.0704   13.0679 C.ar    1  UNL1        0.0370
     19 H          67.4877   94.4165   11.3768 H       1  UNL1        0.1674
     20 C          63.8577   84.5208   15.3300 C.3     1  UNL1        0.1117
     21 C          62.9231   84.0258   11.5049 C.ar    1  UNL1        0.1216
     22 C          62.8483   82.5300   11.4226 C.ar    1  UNL1        0.0199
     23 C          63.1100   81.6976   12.6428 C.ar    1  UNL1        0.0011
     24 C          63.4465   82.3613   13.9453 C.ar    1  UNL1       -0.0037
     25 C          63.5213   83.8572   14.0276 C.ar    1  UNL1       -0.0117
     26 C          63.2596   84.6894   12.8073 C.ar    1  UNL1        0.0161
     27 S          62.6614   84.8581   10.2847 S.O2    1  UNL1        0.0603
     28 O          61.6610   85.6699   11.0530 O.2     1  UNL1       -0.1530
     29 O          63.6619   84.0463    9.5165 O.2     1  UNL1       -0.1530
     30 N          62.3998   85.6904    9.0646 N.3     1  UNL1       -0.1768
     31 H          63.1415   86.3892    9.0202 H       1  UNL1        0.1489
     32 C          61.1012   86.4279    8.9241 C.3     1  UNL1        0.1234
     33 C          60.1180   86.0206    7.8669 C.3     1  UNL1        0.1610
     34 C          59.2766   88.4530    7.5122 C.3     1  UNL1        0.1742
     35 O          59.0425   86.9733    7.4361 O.3     1  UNL1       -0.3496
@<TRIPOS>BOND
     1    34    35    1
     2    35    33    1
     3    33    32    1
     4    32    30    1
     5    30    27    1
     6    27    28    2
     7    27    29    2
     8    27    21    1
     9    21    22   ar
    10    22    23   ar
    11    23    24   ar
    12    24    25   ar
    13    25    20    1
    14    20     1    1
    15     1     2    2
    16     1     3   am
    17     3     5    1
    18     5     6   ar
    19     6     7   ar
    20     7    10    1
    21    10    11   ar
    22    11    12   ar
    23    12    13   ar
    24    13    14   ar
    25    14    15   ar
    26    15    16   ar
    27    16    17   ar
    28    17    18   ar
    29     7     8   ar
    30     8     9   ar
    31    25    26   ar
    32    26    21   ar
    33     9     5   ar
    34    18    10   ar
    35    18    13    1
    36    30    31    1
    37     3     4    1
    38    14    19    1
@<TRIPOS>MOLECULE
*****
 35 38 0 0 0
SMALL
GASTEIGER

@<TRIPOS>ATOM
      1 C          63.5679   89.2243   15.2152 C.2     1  UNL1        0.2320
      2 O          63.0575   88.7629   16.5481 O.2     1  UNL1       -0.2744
      3 N          64.0065   88.2196   14.1914 N.am    1  UNL1       -0.2639
      4 H          64.3416   88.5224   13.3166 H       1  UNL1        0.1567
      5 C          63.9347   86.7536   14.5004 C.ar    1  UNL1        0.1655
      6 N          63.2769   85.7051   13.6532 N.ar    1  UNL1       -0.2239
      7 C          63.4438   84.3821   14.3401 C.ar    1  UNL1        0.0913
      8 C          64.2047   84.6130   15.6119 C.ar    1  UNL1        0.0573
      9 S          64.5082   86.0786   15.7110 S.2     1  UNL1       -0.0508
     10 C          62.9384   83.0604   13.8425 C.ar    1  UNL1        0.0403
     11 C          62.0556   82.1126   14.5991 C.ar    1  UNL1        0.1021
     12 N          61.7988   80.9208   13.7252 N.ar    1  UNL1       -0.2269
     13 C          62.5228   81.1320   12.4286 C.ar    1  UNL1        0.1406
     14 N          62.6318   80.2911   11.1913 N.ar    1  UNL1       -0.3374
     15 C          63.4450   80.7726   10.0265 C.ar    1  UNL1        0.0735
     16 C          64.1494   82.0949   10.0990 C.ar    1  UNL1        0.0186
     17 C          64.0405   82.9358   11.3363 C.ar    1  UNL1        0.0046
     18 C          63.2272   82.4544   12.5011 C.ar    1  UNL1        0.0370
     19 H          62.1695   79.4232   11.1437 H       1  UNL1        0.1674
     20 C          63.6397   90.6904   14.9061 C.3     1  UNL1        0.1117
     21 C          65.9411   92.6725   12.3517 C.ar    1  UNL1        0.1216
     22 C          67.3009   92.3946   12.9207 C.ar    1  UNL1        0.0199
     23 C          67.4403   91.5486   14.1515 C.ar    1  UNL1        0.0011
     24 C          66.2199   90.9805   14.8134 C.ar    1  UNL1       -0.0037
     25 C          64.8601   91.2584   14.2443 C.ar    1  UNL1       -0.0117
     26 C          64.7207   92.1045   13.0135 C.ar    1  UNL1        0.0161
     27 S          65.8017   93.5185   11.1209 S.O2    1  UNL1        0.0603
     28 O          66.5716   94.6184   11.7898 O.2     1  UNL1       -0.1530
     29 O          65.0318   92.4185   10.4521 O.2     1  UNL1       -0.1530
     30 N          65.6623   94.3644    9.8901 N.3     1  UNL1       -0.1768
     31 H          65.5418   93.7245    9.1050 H       1  UNL1        0.1489
     32 C          66.7552   95.3180    9.5077 C.3     1  UNL1        0.1234
     33 C          67.9730   94.8145    8.7909 C.3     1  UNL1        0.1610
     34 C          68.7772   92.3737    9.1731 C.3     1  UNL1        0.1742
     35 O          68.8917   93.8403    9.4668 O.3     1  UNL1       -0.3496
@<TRIPOS>BOND
     1    34    35    1
     2    35    33    1
     3    33    32    1
     4    32    30    1
     5    30    27    1
     6    27    28    2
     7    27    29    2
     8    27    21    1
     9    21    22   ar
    10    22    23   ar
    11    23    24   ar
    12    24    25   ar
    13    25    20    1
    14    20     1    1
    15     1     2    2
    16     1     3   am
    17     3     5    1
    18     5     6   ar
    19     6     7   ar
    20     7    10    1
    21    10    11   ar
    22    11    12   ar
    23    12    13   ar
    24    13    14   ar
    25    14    15   ar
    26    15    16   ar
    27    16    17   ar
    28    17    18   ar
    29     7     8   ar
    30     8     9   ar
    31    25    26   ar
    32    26    21   ar
    33     9     5   ar
    34    18    10   ar
    35    18    13    1
    36    30    31    1
    37     3     4    1
    38    14    19    1
@<TRIPOS>MOLECULE
*****
 35 38 0 0 0
SMALL
GASTEIGER

@<TRIPOS>ATOM
      1 C          62.2167   86.2833   10.2546 C.2     1  UNL1        0.2320
      2 O          62.7574   86.7455    8.9340 O.2     1  UNL1       -0.2744
      3 N          61.9985   87.2706   11.3626 N.am    1  UNL1       -0.2639
      4 H          61.6437   86.9673   12.2294 H       1  UNL1        0.1567
      5 C          62.3210   88.7200   11.1500 C.ar    1  UNL1        0.1655
      6 N          63.5464   89.4320   11.6415 N.ar    1  UNL1       -0.2239
      7 C          63.4575   90.8639   11.2038 C.ar    1  UNL1        0.0913
      8 C          62.1771   91.0370   10.4418 C.ar    1  UNL1        0.0573
      9 S          61.4748   89.7120   10.4085 S.2     1  UNL1       -0.0508
     10 C          64.4709   91.9348   11.4798 C.ar    1  UNL1        0.0403
     11 C          64.9158   92.9965   10.5181 C.ar    1  UNL1        0.1021
     12 N          65.9373   93.8498   11.2098 N.ar    1  UNL1       -0.2269
     13 C          66.1237   93.3155   12.5990 C.ar    1  UNL1        0.1406
     14 N          67.0015   93.7538   13.7335 N.ar    1  UNL1       -0.3374
     15 C          66.9731   93.0085   15.0349 C.ar    1  UNL1        0.0735
     16 C          66.0668   91.8249   15.2018 C.ar    1  UNL1        0.0186
     17 C          65.1890   91.3866   14.0672 C.ar    1  UNL1        0.0046
     18 C          65.2174   92.1319   12.7658 C.ar    1  UNL1        0.0370
     19 H          67.5963   94.5306   13.6240 H       1  UNL1        0.1674
     20 C          61.8942   84.8339   10.4673 C.3     1  UNL1        0.1117
     21 C          63.4608   84.0013   14.0173 C.ar    1  UNL1        0.1216
     22 C          63.8456   82.5640   13.8273 C.ar    1  UNL1        0.0199
     23 C          63.5800   81.8834   12.5173 C.ar    1  UNL1        0.0011
     24 C          62.9296   82.6400   11.3972 C.ar    1  UNL1       -0.0037
     25 C          62.5447   84.0774   11.5873 C.ar    1  UNL1       -0.0117
     26 C          62.8103   84.7580   12.8974 C.ar    1  UNL1        0.0161
     27 S          63.7263   84.6820   15.3273 S.O2    1  UNL1        0.0603
     28 O          62.3734   84.2615   15.8201 O.2     1  UNL1       -0.1530
     29 O          65.0793   85.1025   14.8346 O.2     1  UNL1       -0.1530
     30 N          63.9919   85.3627   16.6374 N.3     1  UNL1       -0.1768
     31 H          64.3899   84.6591   17.2594 H       1  UNL1        0.1489
     32 C          62.8672   86.0152   17.3851 C.3     1  UNL1        0.1234
     33 C          62.8460   87.5052   17.5575 C.3     1  UNL1        0.1610
     34 C          63.1471   89.8825   16.5537 C.3     1  UNL1        0.1742
     35 O          63.0122   88.4005   16.3656 O.3     1  UNL1       -0.3496
@<TRIPOS>BOND
     1    34    35    1
     2    35    33    1
     3    33    32    1
     4    32    30    1
     5    30    27    1
     6    27    28    2
     7    27    29    2
     8    27    21    1
     9    21    22   ar
    10    22    23   ar
    11    23    24   ar
    12    24    25   ar
    13    25    20    1
    14    20     1    1
    15     1     2    2
    16     1     3   am
    17     3     5    1
    18     5     6   ar
    19     6     7   ar
    20     7    10    1
    21    10    11   ar
    22    11    12   ar
    23    12    13   ar
    24    13    14   ar
    25    14    15   ar
    26    15    16   ar
    27    16    17   ar
    28    17    18   ar
    29     7     8   ar
    30     8     9   ar
    31    25    26   ar
    32    26    21   ar
    33     9     5   ar
    34    18    10   ar
    35    18    13    1
    36    30    31    1
    37     3     4    1
    38    14    19    1
@<TRIPOS>MOLECULE
*****
 35 38 0 0 0
SMALL
GASTEIGER

@<TRIPOS>ATOM
      1 C          62.3067   87.2637   10.3660 C.2     1  UNL1        0.2320
      2 O          62.0214   88.4790    9.5344 O.2     1  UNL1       -0.2744
      3 N          62.8553   87.4164   11.7537 N.am    1  UNL1       -0.2639
      4 H          63.0426   86.6187   12.2995 H       1  UNL1        0.1567
      5 C          63.1186   88.7843   12.3098 C.ar    1  UNL1        0.1655
      6 N          63.8650   89.0937   13.5736 N.ar    1  UNL1       -0.2239
      7 C          63.8895   90.5837   13.7447 C.ar    1  UNL1        0.0913
      8 C          63.1582   91.1953   12.5865 C.ar    1  UNL1        0.0573
      9 S          62.6818   90.0832   11.6998 S.2     1  UNL1       -0.0508
     10 C          64.5323   91.3310   14.8753 C.ar    1  UNL1        0.0403
     11 C          63.8888   91.6692   16.1873 C.ar    1  UNL1        0.1021
     12 N          64.8903   92.4185   17.0153 N.ar    1  UNL1       -0.2269
     13 C          66.1528   92.5433   16.2149 C.ar    1  UNL1        0.1406
     14 N          67.4753   93.1822   16.5196 N.ar    1  UNL1       -0.3374
     15 C          68.5765   93.1490   15.5017 C.ar    1  UNL1        0.0735
     16 C          68.3552   92.4768   14.1791 C.ar    1  UNL1        0.0186
     17 C          67.0327   91.8379   13.8744 C.ar    1  UNL1        0.0046
     18 C          65.9315   91.8712   14.8923 C.ar    1  UNL1        0.0370
     19 H          67.6205   93.6234   17.3877 H       1  UNL1        0.1674
     20 C          62.0434   85.8957    9.8099 C.3     1  UNL1        0.1117
     21 C          63.3059   83.2212   12.4564 C.ar    1  UNL1        0.1216
     22 C          64.1124   82.3117   11.5776 C.ar    1  UNL1        0.0199
     23 C          64.2293   82.5968   10.1096 C.ar    1  UNL1        0.0011
     24 C          63.5396   83.7915    9.5203 C.ar    1  UNL1       -0.0037
     25 C          62.7330   84.7011   10.3992 C.ar    1  UNL1       -0.0117
     26 C          62.6162   84.4159   11.8672 C.ar    1  UNL1        0.0161
     27 S          63.1890   82.9361   13.9244 S.O2    1  UNL1        0.0603
     28 O          64.4844   83.6526   14.1667 O.2     1  UNL1       -0.1530
     29 O          61.8937   82.2197   13.6821 O.2     1  UNL1       -0.1530
     30 N          63.0722   82.6511   15.3924 N.3     1  UNL1       -0.1768
     31 H          62.2008   82.1374   15.5242 H       1  UNL1        0.1489
     32 C          63.0613   83.7821   16.3775 C.3     1  UNL1        0.1234
     33 C          62.2590   85.0172   16.0926 C.3     1  UNL1        0.1610
     34 C          62.6141   86.8241   17.9253 C.3     1  UNL1        0.1742
     35 O          61.7229   85.8412   17.2255 O.3     1  UNL1       -0.3496
@<TRIPOS>BOND
     1    34    35    1
     2    35    33    1
     3    33    32    1
     4    32    30    1
     5    30    27    1
     6    27    28    2
     7    27    29    2
     8    27    21    1
     9    21    22   ar
    10    22    23   ar
    11    23    24   ar
    12    24    25   ar
    13    25    20    1
    14    20     1    1
    15     1     2    2
    16     1     3   am
    17     3     5    1
    18     5     6   ar
    19     6     7   ar
    20     7    10    1
    21    10    11   ar
    22    11    12   ar
    23    12    13   ar
    24    13    14   ar
    25    14    15   ar
    26    15    16   ar
    27    16    17   ar
    28    17    18   ar
    29     7     8   ar
    30     8     9   ar
    31    25    26   ar
    32    26    21   ar
    33     9     5   ar
    34    18    10   ar
    35    18    13    1
    36    30    31    1
    37     3     4    1
    38    14    19    1
@<TRIPOS>MOLECULE
*****
 35 38 0 0 0
SMALL
GASTEIGER

@<TRIPOS>ATOM
      1 C          63.6134   89.1227   15.3314 C.2     1  UNL1        0.2320
      2 O          62.4707   88.8795   16.2721 O.2     1  UNL1       -0.2744
      3 N          64.3202   87.9632   14.6942 N.am    1  UNL1       -0.2639
      4 H          65.0702   88.1228   14.0768 H       1  UNL1        0.1567
      5 C          63.8842   86.5605   14.9978 C.ar    1  UNL1        0.1655
      6 N          63.5631   85.4989   13.9879 N.ar    1  UNL1       -0.2239
      7 C          63.1732   84.2553   14.7304 C.ar    1  UNL1        0.0913
      8 C          63.2534   84.5482   16.1994 C.ar    1  UNL1        0.0573
      9 S          63.6928   85.9729   16.3646 S.2     1  UNL1       -0.0508
     10 C          62.7733   82.9482   14.1126 C.ar    1  UNL1        0.0403
     11 C          61.9537   81.8770   14.7688 C.ar    1  UNL1        0.1021
     12 N          61.7967   80.7497   13.7919 N.ar    1  UNL1       -0.2269
     13 C          62.5194   81.1241   12.5319 C.ar    1  UNL1        0.1406
     14 N          62.7058   80.4034   11.2297 N.ar    1  UNL1       -0.3374
     15 C          63.4958   81.0414   10.1258 C.ar    1  UNL1        0.0735
     16 C          64.0994   82.4002   10.3240 C.ar    1  UNL1        0.0186
     17 C          63.9130   83.1210   11.6262 C.ar    1  UNL1        0.0046
     18 C          63.1230   82.4829   12.7301 C.ar    1  UNL1        0.0370
     19 H          62.3097   79.5115   11.0996 H       1  UNL1        0.1674
     20 C          64.0494   90.5255   15.0278 C.3     1  UNL1        0.1117
     21 C          65.2036   92.4978   11.7831 C.ar    1  UNL1        0.1216
     22 C          64.2539   91.9447   10.7623 C.ar    1  UNL1        0.0199
     23 C          63.2360   90.9185   11.1633 C.ar    1  UNL1        0.0011
     24 C          63.1678   90.4454   12.5852 C.ar    1  UNL1       -0.0037
     25 C          64.1176   90.9986   13.6060 C.ar    1  UNL1       -0.0117
     26 C          65.1355   92.0248   13.2049 C.ar    1  UNL1        0.0161
     27 S          66.2216   93.5240   11.3821 S.O2    1  UNL1        0.0603
     28 O          66.3045   92.9083   10.0168 O.2     1  UNL1       -0.1530
     29 O          66.1387   94.1397   12.7474 O.2     1  UNL1       -0.1530
     30 N          67.2395   94.5502   10.9811 N.3     1  UNL1       -0.1768
     31 H          67.8407   94.7008   11.7912 H       1  UNL1        0.1489
     32 C          66.7952   95.9045   10.5138 C.3     1  UNL1        0.1234
     33 C          66.8727   96.2583    9.0581 C.3     1  UNL1        0.1610
     34 C          65.6484   96.8560    6.8459 C.3     1  UNL1        0.1742
     35 O          65.6311   96.2466    8.2165 O.3     1  UNL1       -0.3496
@<TRIPOS>BOND
     1    34    35    1
     2    35    33    1
     3    33    32    1
     4    32    30    1
     5    30    27    1
     6    27    28    2
     7    27    29    2
     8    27    21    1
     9    21    22   ar
    10    22    23   ar
    11    23    24   ar
    12    24    25   ar
    13    25    20    1
    14    20     1    1
    15     1     2    2
    16     1     3   am
    17     3     5    1
    18     5     6   ar
    19     6     7   ar
    20     7    10    1
    21    10    11   ar
    22    11    12   ar
    23    12    13   ar
    24    13    14   ar
    25    14    15   ar
    26    15    16   ar
    27    16    17   ar
    28    17    18   ar
    29     7     8   ar
    30     8     9   ar
    31    25    26   ar
    32    26    21   ar
    33     9     5   ar
    34    18    10   ar
    35    18    13    1
    36    30    31    1
    37     3     4    1
    38    14    19    1
@<TRIPOS>MOLECULE
*****
 35 38 0 0 0
SMALL
GASTEIGER

@<TRIPOS>ATOM
      1 C          63.7495   89.0568   15.6149 C.2     1  UNL1        0.2320
      2 O          62.6515   88.8253   16.6103 O.2     1  UNL1       -0.2744
      3 N          64.3302   87.9003   14.8564 N.am    1  UNL1       -0.2639
      4 H          65.0509   88.0522   14.2031 H       1  UNL1        0.1567
      5 C          63.8130   86.5125   15.0932 C.ar    1  UNL1        0.1655
      6 N          63.5717   85.4700   14.0420 N.ar    1  UNL1       -0.2239
      7 C          63.0558   84.2366   14.7219 C.ar    1  UNL1        0.0913
      8 C          62.9781   84.5166   16.1935 C.ar    1  UNL1        0.0573
      9 S          63.4461   85.9232   16.4230 S.2     1  UNL1       -0.0508
     10 C          62.6829   82.9491   14.0486 C.ar    1  UNL1        0.0403
     11 C          61.8263   81.8648   14.6321 C.ar    1  UNL1        0.1021
     12 N          61.7153   80.7655   13.6176 N.ar    1  UNL1       -0.2269
     13 C          62.5032   81.1704   12.4071 C.ar    1  UNL1        0.1406
     14 N          62.7533   80.4845   11.0968 N.ar    1  UNL1       -0.3374
     15 C          63.6015   81.1483   10.0528 C.ar    1  UNL1        0.0735
     16 C          64.1995   82.4979   10.3192 C.ar    1  UNL1        0.0186
     17 C          63.9494   83.1837   11.6295 C.ar    1  UNL1        0.0046
     18 C          63.1012   82.5199   12.6735 C.ar    1  UNL1        0.0370
     19 H          62.3608   79.5987   10.9220 H       1  UNL1        0.1674
     20 C          64.2668   90.4447   15.3780 C.3     1  UNL1        0.1117
     21 C          63.4904   91.0939   11.5406 C.ar    1  UNL1        0.1216
     22 C          64.6014   92.0357   11.1820 C.ar    1  UNL1        0.0199
     23 C          65.6010   92.4471   12.2220 C.ar    1  UNL1        0.0011
     24 C          65.4895   91.9167   13.6207 C.ar    1  UNL1       -0.0037
     25 C          64.3783   90.9750   13.9794 C.ar    1  UNL1       -0.0117
     26 C          63.3788   90.5636   12.9393 C.ar    1  UNL1        0.0161
     27 S          62.4908   90.6825   10.5006 S.O2    1  UNL1        0.0603
     28 O          63.1054   91.6458    9.5289 O.2     1  UNL1       -0.1530
     29 O          61.8762   89.7192   11.4724 O.2     1  UNL1       -0.1530
     30 N          61.4912   90.2711    9.4606 N.3     1  UNL1       -0.1768
     31 H          60.9767   91.1117    9.1979 H       1  UNL1        0.1489
     32 C          60.4697   89.2192    9.7768 C.3     1  UNL1        0.1234
     33 C          60.2093   88.1095    8.8017 C.3     1  UNL1        0.1610
     34 C          61.1778   86.3110   10.4071 C.3     1  UNL1        0.1742
     35 O          60.8257   86.7596    9.0197 O.3     1  UNL1       -0.3496
@<TRIPOS>BOND
     1    34    35    1
     2    35    33    1
     3    33    32    1
     4    32    30    1
     5    30    27    1
     6    27    28    2
     7    27    29    2
     8    27    21    1
     9    21    22   ar
    10    22    23   ar
    11    23    24   ar
    12    24    25   ar
    13    25    20    1
    14    20     1    1
    15     1     2    2
    16     1     3   am
    17     3     5    1
    18     5     6   ar
    19     6     7   ar
    20     7    10    1
    21    10    11   ar
    22    11    12   ar
    23    12    13   ar
    24    13    14   ar
    25    14    15   ar
    26    15    16   ar
    27    16    17   ar
    28    17    18   ar
    29     7     8   ar
    30     8     9   ar
    31    25    26   ar
    32    26    21   ar
    33     9     5   ar
    34    18    10   ar
    35    18    13    1
    36    30    31    1
    37     3     4    1
    38    14    19    1
