@<TRIPOS>MOLECULE
*****
 23 25 0 0 0
SMALL
GASTEIGER

@<TRIPOS>ATOM
      1 O          63.9953   91.5952   13.6061 O.3     1  UNL1       -0.4728
      2 C          63.4169   90.4821   12.7836 C.ar    1  UNL1        0.1387
      3 C          63.7388   89.0560   13.1193 C.ar    1  UNL1        0.0369
      4 C          63.1604   87.9430   12.2968 C.ar    1  UNL1        0.0031
      5 C          62.2601   88.2559   11.1386 C.ar    1  UNL1        0.0007
      6 C          61.6816   87.1428   10.3162 C.ar    1  UNL1        0.0067
      7 C          60.7813   87.4558    9.1580 C.ar    1  UNL1        0.0346
      8 BR         60.2029   86.3427    8.3355 Br      1  UNL1       -0.0490
      9 C          60.4593   88.8819    8.8223 C.ar    1  UNL1        0.0067
     10 C          61.0377   89.9949    9.6447 C.ar    1  UNL1        0.0006
     11 C          61.9381   89.6820   10.8029 C.ar    1  UNL1        0.0030
     12 C          62.5165   90.7950   11.6254 C.ar    1  UNL1        0.0369
     13 C          65.4773   91.6756   13.8228 C.3     1  UNL1        0.2367
     14 C          66.2783   92.7445   13.1401 C.3     1  UNL1        0.1811
     15 O          67.5238   93.2759   13.7854 O.3     1  UNL1       -0.3504
     16 C          68.3416   92.3299   16.0627 C.3     1  UNL1        0.0346
     17 C          67.6091   93.3786   15.2794 C.3     1  UNL1        0.1424
     18 C          65.8337   93.2820   11.8122 C.3     1  UNL1        0.1409
     19 N          66.7762   93.2715   10.6453 N.ar    1  UNL1       -0.3052
     20 C          67.8040   92.2191   10.3515 C.ar    1  UNL1        0.0981
     21 C          68.5194   92.6087    9.0920 C.ar    1  UNL1        0.1193
     22 N          67.9337   93.9019    8.6074 N.ar    1  UNL1       -0.2223
     23 C          66.8564   94.3115    9.5674 C.ar    1  UNL1        0.1787
@<TRIPOS>BOND
     1    16    17    1
     2    17    15    1
     3    15    14    1
     4    14    13    1
     5    13     1    1
     6     1     2    1
     7     2     3   ar
     8     3     4   ar
     9     4     5   ar
    10     5     6   ar
    11     6     7   ar
    12     7     8    1
    13     7     9   ar
    14     9    10   ar
    15    10    11   ar
    16    11    12   ar
    17    14    18    1
    18    18    19    1
    19    19    20   ar
    20    20    21   ar
    21    21    22   ar
    22    22    23   ar
    23    12     2   ar
    24    23    19   ar
    25    11     5   ar
@<TRIPOS>MOLECULE
*****
 23 25 0 0 0
SMALL
GASTEIGER

@<TRIPOS>ATOM
      1 O          64.2140   91.4243   13.6705 O.3     1  UNL1       -0.4728
      2 C          63.5489   90.6409   12.5778 C.ar    1  UNL1        0.1387
      3 C          63.0547   91.3413   11.3469 C.ar    1  UNL1        0.0369
      4 C          62.3896   90.5579   10.2542 C.ar    1  UNL1        0.0031
      5 C          62.2186   89.0741   10.3926 C.ar    1  UNL1        0.0007
      6 C          61.5535   88.2907    9.2999 C.ar    1  UNL1        0.0067
      7 C          61.3825   86.8069    9.4382 C.ar    1  UNL1        0.0346
      8 BR         60.7174   86.0235    8.3456 Br      1  UNL1       -0.0490
      9 C          61.8767   86.1065   10.6692 C.ar    1  UNL1        0.0067
     10 C          62.5418   86.8899   11.7618 C.ar    1  UNL1        0.0006
     11 C          62.7128   88.3737   11.6235 C.ar    1  UNL1        0.0030
     12 C          63.3779   89.1571   12.7161 C.ar    1  UNL1        0.0369
     13 C          65.7106   91.5021   13.7333 C.3     1  UNL1        0.2367
     14 C          66.4190   92.7310   13.2451 C.3     1  UNL1        0.1811
     15 O          67.6938   93.1721   13.9010 O.3     1  UNL1       -0.3504
     16 C          68.3229   92.3019   16.2668 C.3     1  UNL1        0.0346
     17 C          67.7433   93.3697   15.3871 C.3     1  UNL1        0.1424
     18 C          65.8525   93.5186   12.1012 C.3     1  UNL1        0.1409
     19 N          66.6794   93.7571   10.8726 N.ar    1  UNL1       -0.3052
     20 C          66.9097   95.0822   10.2085 C.ar    1  UNL1        0.0981
     21 C          67.7937   94.8566    9.0179 C.ar    1  UNL1        0.1193
     22 N          68.1098   93.3919    8.9462 N.ar    1  UNL1       -0.2223
     23 C          67.4210   92.7125   10.0925 C.ar    1  UNL1        0.1787
@<TRIPOS>BOND
     1    16    17    1
     2    17    15    1
     3    15    14    1
     4    14    13    1
     5    13     1    1
     6     1     2    1
     7     2     3   ar
     8     3     4   ar
     9     4     5   ar
    10     5     6   ar
    11     6     7   ar
    12     7     8    1
    13     7     9   ar
    14     9    10   ar
    15    10    11   ar
    16    11    12   ar
    17    14    18    1
    18    18    19    1
    19    19    20   ar
    20    20    21   ar
    21    21    22   ar
    22    22    23   ar
    23    12     2   ar
    24    23    19   ar
    25    11     5   ar
@<TRIPOS>MOLECULE
*****
 23 25 0 0 0
SMALL
GASTEIGER

@<TRIPOS>ATOM
      1 O          61.4735   89.2573   12.3654 O.3     1  UNL1       -0.4728
      2 C          61.2573   88.4357   11.1291 C.ar    1  UNL1        0.1387
      3 C          59.9949   88.5941   10.3346 C.ar    1  UNL1        0.0369
      4 C          59.7787   87.7726    9.0984 C.ar    1  UNL1        0.0031
      5 C          60.8250   86.7926    8.6566 C.ar    1  UNL1        0.0007
      6 C          60.6087   85.9711    7.4203 C.ar    1  UNL1        0.0067
      7 C          61.6550   84.9911    6.9785 C.ar    1  UNL1        0.0346
      8 BR         61.4388   84.1696    5.7423 Br      1  UNL1       -0.0490
      9 C          62.9174   84.8328    7.7731 C.ar    1  UNL1        0.0067
     10 C          63.1336   85.6543    9.0093 C.ar    1  UNL1        0.0006
     11 C          62.0873   86.6342    9.4511 C.ar    1  UNL1        0.0030
     12 C          62.3035   87.4558   10.6873 C.ar    1  UNL1        0.0369
     13 C          62.7742   89.9755   12.5706 C.3     1  UNL1        0.2367
     14 C          63.3942   90.0291   13.9355 C.3     1  UNL1        0.1811
     15 O          62.5443   89.8219   15.1539 O.3     1  UNL1       -0.3504
     16 C          63.0214   88.1597   17.0929 C.3     1  UNL1        0.0346
     17 C          63.1876   89.5159   16.4739 C.3     1  UNL1        0.1424
     18 C          64.8641   90.2899   14.0818 C.3     1  UNL1        0.1409
     19 N          65.4110   91.6632   13.8275 N.ar    1  UNL1       -0.3052
     20 C          65.5697   92.3145   12.4856 C.ar    1  UNL1        0.0981
     21 C          66.1522   93.6802   12.6992 C.ar    1  UNL1        0.1193
     22 N          66.3534   93.8729   14.1731 N.ar    1  UNL1       -0.2223
     23 C          65.8954   92.6264   14.8704 C.ar    1  UNL1        0.1787
@<TRIPOS>BOND
     1    16    17    1
     2    17    15    1
     3    15    14    1
     4    14    13    1
     5    13     1    1
     6     1     2    1
     7     2     3   ar
     8     3     4   ar
     9     4     5   ar
    10     5     6   ar
    11     6     7   ar
    12     7     8    1
    13     7     9   ar
    14     9    10   ar
    15    10    11   ar
    16    11    12   ar
    17    14    18    1
    18    18    19    1
    19    19    20   ar
    20    20    21   ar
    21    21    22   ar
    22    22    23   ar
    23    12     2   ar
    24    23    19   ar
    25    11     5   ar
@<TRIPOS>MOLECULE
*****
 23 25 0 0 0
SMALL
GASTEIGER

@<TRIPOS>ATOM
      1 O          63.7393   87.7781   14.9629 O.3     1  UNL1       -0.4728
      2 C          64.0396   88.9911   14.1331 C.ar    1  UNL1        0.1387
      3 C          63.3566   89.1836   12.8116 C.ar    1  UNL1        0.0369
      4 C          63.6569   90.3966   11.9819 C.ar    1  UNL1        0.0031
      5 C          64.6402   91.4170   12.4736 C.ar    1  UNL1        0.0007
      6 C          64.9405   92.6300   11.6438 C.ar    1  UNL1        0.0067
      7 C          65.9238   93.6504   12.1355 C.ar    1  UNL1        0.0346
      8 BR         66.2241   94.8634   11.3058 Br      1  UNL1       -0.0490
      9 C          66.6069   93.4578   13.4571 C.ar    1  UNL1        0.0067
     10 C          66.3066   92.2449   14.2868 C.ar    1  UNL1        0.0006
     11 C          65.3233   91.2245   13.7951 C.ar    1  UNL1        0.0030
     12 C          65.0230   90.0115   14.6248 C.ar    1  UNL1        0.0369
     13 C          64.5006   86.5060   14.7346 C.3     1  UNL1        0.2367
     14 C          63.8493   85.3605   14.0177 C.3     1  UNL1        0.1811
     15 O          62.6254   85.5965   13.1833 O.3     1  UNL1       -0.3504
     16 C          61.5289   85.8832   10.8454 C.3     1  UNL1        0.0346
     17 C          62.7029   85.4841   11.6895 C.3     1  UNL1        0.1424
     18 C          64.4220   83.9792   14.1353 C.3     1  UNL1        0.1409
     19 N          63.5415   82.7823   13.9297 N.ar    1  UNL1       -0.3052
     20 C          62.2282   82.5270   14.6078 C.ar    1  UNL1        0.0981
     21 C          61.6948   81.2175   14.1071 C.ar    1  UNL1        0.1193
     22 N          62.6785   80.6635   13.1194 N.ar    1  UNL1       -0.2223
     23 C          63.8199   81.6307   13.0098 C.ar    1  UNL1        0.1787
@<TRIPOS>BOND
     1    16    17    1
     2    17    15    1
     3    15    14    1
     4    14    13    1
     5    13     1    1
     6     1     2    1
     7     2     3   ar
     8     3     4   ar
     9     4     5   ar
    10     5     6   ar
    11     6     7   ar
    12     7     8    1
    13     7     9   ar
    14     9    10   ar
    15    10    11   ar
    16    11    12   ar
    17    14    18    1
    18    18    19    1
    19    19    20   ar
    20    20    21   ar
    21    21    22   ar
    22    22    23   ar
    23    12     2   ar
    24    23    19   ar
    25    11     5   ar
@<TRIPOS>MOLECULE
*****
 23 25 0 0 0
SMALL
GASTEIGER

@<TRIPOS>ATOM
      1 O          64.1249   91.6128   13.8618 O.3     1  UNL1       -0.4728
      2 C          63.7820   90.2381   13.3693 C.ar    1  UNL1        0.1387
      3 C          63.0115   90.0691   12.0934 C.ar    1  UNL1        0.0369
      4 C          62.6686   88.6944   11.6009 C.ar    1  UNL1        0.0031
      5 C          63.0962   87.4887   12.3842 C.ar    1  UNL1        0.0007
      6 C          62.7533   86.1140   11.8917 C.ar    1  UNL1        0.0067
      7 C          63.1809   84.9083   12.6750 C.ar    1  UNL1        0.0346
      8 BR         62.8380   83.5336   12.1824 Br      1  UNL1       -0.0490
      9 C          63.9514   85.0774   13.9508 C.ar    1  UNL1        0.0067
     10 C          64.2943   86.4521   14.4433 C.ar    1  UNL1        0.0006
     11 C          63.8667   87.6577   13.6600 C.ar    1  UNL1        0.0030
     12 C          64.2096   89.0324   14.1526 C.ar    1  UNL1        0.0369
     13 C          65.5396   91.9451   14.2335 C.3     1  UNL1        0.2367
     14 C          66.4037   92.7173   13.2810 C.3     1  UNL1        0.1811
     15 O          67.8392   92.9879   13.6216 O.3     1  UNL1       -0.3504
     16 C          68.6327   93.7268   15.9826 C.3     1  UNL1        0.0346
     17 C          68.3653   92.6410   14.9828 C.3     1  UNL1        0.1424
     18 C          65.8323   93.2187   11.9879 C.3     1  UNL1        0.1409
     19 N          66.7332   93.4584   10.8128 N.ar    1  UNL1       -0.3052
     20 C          67.5754   92.4268   10.1226 C.ar    1  UNL1        0.0981
     21 C          68.3127   93.1026    9.0048 C.ar    1  UNL1        0.1193
     22 N          67.9262   94.5520    9.0042 N.ar    1  UNL1       -0.2223
     23 C          66.9500   94.7719   10.1217 C.ar    1  UNL1        0.1787
@<TRIPOS>BOND
     1    16    17    1
     2    17    15    1
     3    15    14    1
     4    14    13    1
     5    13     1    1
     6     1     2    1
     7     2     3   ar
     8     3     4   ar
     9     4     5   ar
    10     5     6   ar
    11     6     7   ar
    12     7     8    1
    13     7     9   ar
    14     9    10   ar
    15    10    11   ar
    16    11    12   ar
    17    14    18    1
    18    18    19    1
    19    19    20   ar
    20    20    21   ar
    21    21    22   ar
    22    22    23   ar
    23    12     2   ar
    24    23    19   ar
    25    11     5   ar
@<TRIPOS>MOLECULE
*****
 23 25 0 0 0
SMALL
GASTEIGER

@<TRIPOS>ATOM
      1 O          61.4855   87.3444   11.7074 O.3     1  UNL1       -0.4728
      2 C          62.2598   88.6125   11.5008 C.ar    1  UNL1        0.1387
      3 C          62.1383   89.3633   10.2079 C.ar    1  UNL1        0.0369
      4 C          62.9125   90.6312   10.0014 C.ar    1  UNL1        0.0031
      5 C          63.8083   91.1484   11.0877 C.ar    1  UNL1        0.0007
      6 C          64.5826   92.4165   10.8811 C.ar    1  UNL1        0.0067
      7 C          65.4783   92.9337   11.9674 C.ar    1  UNL1        0.0346
      8 BR         66.2526   94.2017   11.7609 Br      1  UNL1       -0.0490
      9 C          65.5998   92.1829   13.2604 C.ar    1  UNL1        0.0067
     10 C          64.8255   90.9149   13.4669 C.ar    1  UNL1        0.0006
     11 C          63.9298   90.3977   12.3806 C.ar    1  UNL1        0.0030
     12 C          63.1555   89.1297   12.5871 C.ar    1  UNL1        0.0369
     13 C          62.0590   86.0337   11.2571 C.3     1  UNL1        0.2367
     14 C          62.7319   85.1297   12.2472 C.3     1  UNL1        0.1811
     15 O          62.8592   85.5506   13.6812 O.3     1  UNL1       -0.3504
     16 C          64.5363   87.0895   14.9339 C.3     1  UNL1        0.0346
     17 C          64.2162   85.7789   14.2782 C.3     1  UNL1        0.1424
     18 C          63.2773   83.8048   11.8031 C.3     1  UNL1        0.1409
     19 N          62.9283   82.5582   12.5607 N.ar    1  UNL1       -0.3052
     20 C          62.8304   81.1758   11.9866 C.ar    1  UNL1        0.0981
     21 C          62.4576   80.2382   13.0966 C.ar    1  UNL1        0.1193
     22 N          62.3251   81.0412   14.3567 N.ar    1  UNL1       -0.2223
     23 C          62.6161   82.4749   14.0255 C.ar    1  UNL1        0.1787
@<TRIPOS>BOND
     1    16    17    1
     2    17    15    1
     3    15    14    1
     4    14    13    1
     5    13     1    1
     6     1     2    1
     7     2     3   ar
     8     3     4   ar
     9     4     5   ar
    10     5     6   ar
    11     6     7   ar
    12     7     8    1
    13     7     9   ar
    14     9    10   ar
    15    10    11   ar
    16    11    12   ar
    17    14    18    1
    18    18    19    1
    19    19    20   ar
    20    20    21   ar
    21    21    22   ar
    22    22    23   ar
    23    12     2   ar
    24    23    19   ar
    25    11     5   ar
@<TRIPOS>MOLECULE
*****
 23 25 0 0 0
SMALL
GASTEIGER

@<TRIPOS>ATOM
      1 O          63.7936   91.0505   13.4160 O.3     1  UNL1       -0.4728
      2 C          63.7474   89.5512   13.4218 C.ar    1  UNL1        0.1387
      3 C          64.3817   88.7856   14.5450 C.ar    1  UNL1        0.0369
      4 C          64.3354   87.2864   14.5507 C.ar    1  UNL1        0.0031
      5 C          63.6550   86.5527   13.4333 C.ar    1  UNL1        0.0007
      6 C          63.6088   85.0534   13.4391 C.ar    1  UNL1        0.0067
      7 C          62.9283   84.3197   12.3217 C.ar    1  UNL1        0.0346
      8 BR         62.8821   82.8204   12.3274 Br      1  UNL1       -0.0490
      9 C          62.2940   85.0853   11.1984 C.ar    1  UNL1        0.0067
     10 C          62.3402   86.5845   11.1927 C.ar    1  UNL1        0.0006
     11 C          63.0207   87.3182   12.3101 C.ar    1  UNL1        0.0030
     12 C          63.0669   88.8175   12.3044 C.ar    1  UNL1        0.0369
     13 C          64.6117   91.7717   12.3862 C.3     1  UNL1        0.2367
     14 C          65.8723   92.4776   12.7896 C.3     1  UNL1        0.1811
     15 O          66.8601   91.7940   13.6880 O.3     1  UNL1       -0.3504
     16 C          67.8315   92.4020   16.0196 C.3     1  UNL1        0.0346
     17 C          67.7929   92.6085   14.5344 C.3     1  UNL1        0.1424
     18 C          66.1452   93.8670   12.2946 C.3     1  UNL1        0.1409
     19 N          66.7589   94.0741   10.9417 N.ar    1  UNL1       -0.3052
     20 C          66.9368   95.3913   10.2464 C.ar    1  UNL1        0.0981
     21 C          67.5904   95.1316    8.9215 C.ar    1  UNL1        0.1193
     22 N          67.8164   93.6539    8.7979 N.ar    1  UNL1       -0.2223
     23 C          67.3026   93.0003   10.0464 C.ar    1  UNL1        0.1787
@<TRIPOS>BOND
     1    16    17    1
     2    17    15    1
     3    15    14    1
     4    14    13    1
     5    13     1    1
     6     1     2    1
     7     2     3   ar
     8     3     4   ar
     9     4     5   ar
    10     5     6   ar
    11     6     7   ar
    12     7     8    1
    13     7     9   ar
    14     9    10   ar
    15    10    11   ar
    16    11    12   ar
    17    14    18    1
    18    18    19    1
    19    19    20   ar
    20    20    21   ar
    21    21    22   ar
    22    22    23   ar
    23    12     2   ar
    24    23    19   ar
    25    11     5   ar
@<TRIPOS>MOLECULE
*****
 23 25 0 0 0
SMALL
GASTEIGER

@<TRIPOS>ATOM
      1 O          63.5468   88.3793   14.5705 O.3     1  UNL1       -0.4728
      2 C          63.8863   89.5171   13.6538 C.ar    1  UNL1        0.1387
      3 C          63.2583   89.5979   12.2941 C.ar    1  UNL1        0.0369
      4 C          63.5979   90.7356   11.3775 C.ar    1  UNL1        0.0031
      5 C          64.5655   91.7927   11.8207 C.ar    1  UNL1        0.0007
      6 C          64.9051   92.9305   10.9041 C.ar    1  UNL1        0.0067
      7 C          65.8727   93.9875   11.3473 C.ar    1  UNL1        0.0346
      8 BR         66.2123   95.1253   10.4307 Br      1  UNL1       -0.0490
      9 C          66.5007   93.9067   12.7071 C.ar    1  UNL1        0.0067
     10 C          66.1611   92.7690   13.6237 C.ar    1  UNL1        0.0006
     11 C          65.1935   91.7119   13.1805 C.ar    1  UNL1        0.0030
     12 C          64.8539   90.5742   14.0970 C.ar    1  UNL1        0.0369
     13 C          64.4818   87.2133   14.6969 C.3     1  UNL1        0.2367
     14 C          63.9336   85.8252   14.8480 C.3     1  UNL1        0.1811
     15 O          63.7054   85.2538   16.2159 O.3     1  UNL1       -0.3504
     16 C          62.7407   86.7178   18.1332 C.3     1  UNL1        0.0346
     17 C          62.5374   85.7152   17.0362 C.3     1  UNL1        0.1424
     18 C          63.6136   85.0087   13.6311 C.3     1  UNL1        0.1409
     19 N          63.3854   83.5316   13.7579 N.ar    1  UNL1       -0.3052
     20 C          64.2172   82.4537   13.1284 C.ar    1  UNL1        0.0981
     21 C          63.6312   81.1289   13.5179 C.ar    1  UNL1        0.1193
     22 N          62.4371   81.3882   14.3881 N.ar    1  UNL1       -0.2223
     23 C          62.2853   82.8731   14.5364 C.ar    1  UNL1        0.1787
@<TRIPOS>BOND
     1    16    17    1
     2    17    15    1
     3    15    14    1
     4    14    13    1
     5    13     1    1
     6     1     2    1
     7     2     3   ar
     8     3     4   ar
     9     4     5   ar
    10     5     6   ar
    11     6     7   ar
    12     7     8    1
    13     7     9   ar
    14     9    10   ar
    15    10    11   ar
    16    11    12   ar
    17    14    18    1
    18    18    19    1
    19    19    20   ar
    20    20    21   ar
    21    21    22   ar
    22    22    23   ar
    23    12     2   ar
    24    23    19   ar
    25    11     5   ar
@<TRIPOS>MOLECULE
*****
 23 25 0 0 0
SMALL
GASTEIGER

@<TRIPOS>ATOM
      1 O          62.0076   88.9153   11.7730 O.3     1  UNL1       -0.4728
      2 C          63.1064   89.5545   12.5695 C.ar    1  UNL1        0.1387
      3 C          63.6130   88.8909   13.8156 C.ar    1  UNL1        0.0369
      4 C          64.7118   89.5300   14.6120 C.ar    1  UNL1        0.0031
      5 C          65.3039   90.8327   14.1622 C.ar    1  UNL1        0.0007
      6 C          66.4027   91.4719   14.9587 C.ar    1  UNL1        0.0067
      7 C          66.9948   92.7746   14.5089 C.ar    1  UNL1        0.0346
      8 BR         68.0935   93.4137   15.3052 Br      1  UNL1       -0.0490
      9 C          66.4881   93.4382   13.2626 C.ar    1  UNL1        0.0067
     10 C          65.3894   92.7990   12.4663 C.ar    1  UNL1        0.0006
     11 C          64.7973   91.4963   12.9161 C.ar    1  UNL1        0.0030
     12 C          63.6985   90.8572   12.1197 C.ar    1  UNL1        0.0369
     13 C          62.2961   88.3555   10.4117 C.3     1  UNL1        0.2367
     14 C          61.9880   86.9186   10.1108 C.3     1  UNL1        0.1811
     15 O          62.0251   86.4241    8.6952 O.3     1  UNL1       -0.3504
     16 C          59.4914   86.8224    8.2804 C.3     1  UNL1        0.0346
     17 C          60.7501   86.0580    7.9950 C.3     1  UNL1        0.1424
     18 C          61.6428   85.9763   11.2256 C.3     1  UNL1        0.1409
     19 N          62.6879   85.0528   11.7777 N.ar    1  UNL1       -0.3052
     20 C          63.3577   85.1777   13.1141 C.ar    1  UNL1        0.0981
     21 C          64.3305   84.0444   13.2527 C.ar    1  UNL1        0.1193
     22 N          64.2619   83.2190   12.0020 N.ar    1  UNL1       -0.2223
     23 C          63.2467   83.8423   11.0905 C.ar    1  UNL1        0.1787
@<TRIPOS>BOND
     1    16    17    1
     2    17    15    1
     3    15    14    1
     4    14    13    1
     5    13     1    1
     6     1     2    1
     7     2     3   ar
     8     3     4   ar
     9     4     5   ar
    10     5     6   ar
    11     6     7   ar
    12     7     8    1
    13     7     9   ar
    14     9    10   ar
    15    10    11   ar
    16    11    12   ar
    17    14    18    1
    18    18    19    1
    19    19    20   ar
    20    20    21   ar
    21    21    22   ar
    22    22    23   ar
    23    12     2   ar
    24    23    19   ar
    25    11     5   ar
