@<TRIPOS>MOLECULE
*****
 29 31 0 0 0
SMALL
GASTEIGER

@<TRIPOS>ATOM
      1 C          62.7200   90.1525   12.7362 C.3     1  UNL1        0.1338
      2 C          63.4912   91.3700    9.8083 C.3     1  UNL1        0.0497
      3 C          64.1831   91.6806   11.1024 C.ar    1  UNL1        0.0355
      4 C          65.3510   92.6054   11.2780 C.ar    1  UNL1       -0.0020
      5 C          65.7183   92.6174   12.7323 C.ar    1  UNL1        0.0317
      6 C          66.7879   93.3452   13.4913 C.ar    1  UNL1        0.0043
      7 C          66.9167   93.1555   14.9737 C.ar    1  UNL1        0.0208
      8 C          65.9758   92.2381   15.6969 C.ar    1  UNL1        0.1005
      9 N          64.9062   91.5103   14.9379 N.ar    1  UNL1       -0.2268
     10 C          64.7774   91.7000   13.4555 C.ar    1  UNL1        0.1435
     11 N          63.8287   91.1210   12.4482 N.ar    1  UNL1       -0.3125
     12 C          66.0320   93.3820   10.1902 C.3     1  UNL1        0.0692
     13 C          67.4783   93.1304    9.8818 C.2     1  UNL1        0.0548
     14 O          67.9857   91.7240    9.7603 O.co2   1  UNL1       -0.5488
     15 O          68.4172   94.2852    9.6950 O.co2   1  UNL1       -0.5488
     16 C          63.0087   88.6825   12.8102 C.ar    1  UNL1        0.0044
     17 C          63.8655   88.1411   13.9161 C.ar    1  UNL1       -0.0011
     18 C          64.1542   86.6710   13.9901 C.ar    1  UNL1        0.0181
     19 C          63.5861   85.7422   12.9582 C.ar    1  UNL1        0.1057
     20 C          62.7294   86.2836   11.8524 C.ar    1  UNL1        0.0219
     21 C          62.4407   87.7537   11.7783 C.ar    1  UNL1        0.0706
     22 S          63.8748   84.2722   13.0322 S.O2    1  UNL1        0.0104
     23 C          64.1635   82.8021   13.1063 C.3     1  UNL1        0.1816
     24 O          64.9126   84.5290   14.0843 O.2     1  UNL1       -0.1686
     25 O          62.8369   84.0153   11.9801 O.2     1  UNL1       -0.1686
     26 C          61.5839   88.2950   10.6725 C.3     1  UNL1        0.4184
     27 F          60.7271   88.8363    9.5667 F       1  UNL1       -0.1659
     28 F          62.7733   88.3104    9.7586 F       1  UNL1       -0.1659
     29 F          60.3946   88.2796   11.5863 F       1  UNL1       -0.1659
@<TRIPOS>UNITY_ATOM_ATTR
14 1
charge -1
@<TRIPOS>BOND
     1     2     3    1
     2     3     4   ar
     3     4    12    1
     4    12    13    1
     5    13    14   ar
     6    13    15   ar
     7     4     5   ar
     8     5     6   ar
     9     6     7   ar
    10     7     8   ar
    11     8     9   ar
    12     9    10   ar
    13    10    11   ar
    14    11     1    1
    15     1    16    1
    16    16    17   ar
    17    17    18   ar
    18    18    19   ar
    19    19    22    1
    20    22    23    1
    21    22    24    2
    22    22    25    2
    23    19    20   ar
    24    20    21   ar
    25    21    26    1
    26    26    27    1
    27    26    28    1
    28    26    29    1
    29    11     3   ar
    30    21    16   ar
    31    10     5   ar
@<TRIPOS>MOLECULE
*****
 29 31 0 0 0
SMALL
GASTEIGER

@<TRIPOS>ATOM
      1 C          61.9465   89.3677   12.1926 C.3     1  UNL1        0.1338
      2 C          60.4744   89.1180    9.2909 C.3     1  UNL1        0.0497
      3 C          61.1537   88.0058   10.0335 C.ar    1  UNL1        0.0355
      4 C          61.2756   86.5835    9.5728 C.ar    1  UNL1       -0.0020
      5 C          62.0276   85.8193   10.6218 C.ar    1  UNL1        0.0317
      6 C          62.4445   84.3811   10.7104 C.ar    1  UNL1        0.0043
      7 C          63.2042   83.8929   11.9081 C.ar    1  UNL1        0.0208
      8 C          63.5470   84.8429   13.0172 C.ar    1  UNL1        0.1005
      9 N          63.1302   86.2810   12.9286 N.ar    1  UNL1       -0.2268
     10 C          62.3705   86.7692   11.7309 C.ar    1  UNL1        0.1435
     11 N          61.8304   88.1205   11.3673 N.ar    1  UNL1       -0.3125
     12 C          60.7397   86.0237    8.2885 C.3     1  UNL1        0.0692
     13 C          61.6418   85.2499    7.3734 C.2     1  UNL1        0.0548
     14 O          61.0644   84.4971    6.2115 O.co2   1  UNL1       -0.5488
     15 O          63.1212   85.2288    7.6201 O.co2   1  UNL1       -0.5488
     16 C          63.0134   90.3755   11.8828 C.ar    1  UNL1        0.0044
     17 C          63.0613   91.0257   10.5319 C.ar    1  UNL1       -0.0011
     18 C          64.1282   92.0335   10.2219 C.ar    1  UNL1        0.0181
     19 C          65.1472   92.3912   11.2630 C.ar    1  UNL1        0.1057
     20 C          65.0992   91.7410   12.6139 C.ar    1  UNL1        0.0219
     21 C          64.0324   90.7332   12.9238 C.ar    1  UNL1        0.0706
     22 S          66.2140   93.3990   10.9531 S.O2    1  UNL1        0.0104
     23 C          67.2809   94.4068   10.6432 C.3     1  UNL1        0.1816
     24 O          67.2493   92.4815   11.5331 O.2     1  UNL1       -0.1686
     25 O          65.1788   94.3166   10.3731 O.2     1  UNL1       -0.1686
     26 C          63.9845   90.0830   14.2747 C.3     1  UNL1        0.4184
     27 F          63.9367   89.4328   15.6256 F       1  UNL1       -0.1659
     28 F          63.4050   91.3376   14.8580 F       1  UNL1       -0.1659
     29 F          64.5640   88.8285   13.6915 F       1  UNL1       -0.1659
@<TRIPOS>UNITY_ATOM_ATTR
14 1
charge -1
@<TRIPOS>BOND
     1     2     3    1
     2     3     4   ar
     3     4    12    1
     4    12    13    1
     5    13    14   ar
     6    13    15   ar
     7     4     5   ar
     8     5     6   ar
     9     6     7   ar
    10     7     8   ar
    11     8     9   ar
    12     9    10   ar
    13    10    11   ar
    14    11     1    1
    15     1    16    1
    16    16    17   ar
    17    17    18   ar
    18    18    19   ar
    19    19    22    1
    20    22    23    1
    21    22    24    2
    22    22    25    2
    23    19    20   ar
    24    20    21   ar
    25    21    26    1
    26    26    27    1
    27    26    28    1
    28    26    29    1
    29    11     3   ar
    30    21    16   ar
    31    10     5   ar
@<TRIPOS>MOLECULE
*****
 29 31 0 0 0
SMALL
GASTEIGER

@<TRIPOS>ATOM
      1 C          62.1892   89.4375   12.9184 C.3     1  UNL1        0.1338
      2 C          61.0382   90.0148    9.9198 C.3     1  UNL1        0.0497
      3 C          61.5676   88.7050   10.4240 C.ar    1  UNL1        0.0355
      4 C          61.6610   87.4306    9.6384 C.ar    1  UNL1       -0.0020
      5 C          62.2477   86.3776   10.5311 C.ar    1  UNL1        0.0317
      6 C          62.5715   84.9315   10.2991 C.ar    1  UNL1        0.0043
      7 C          63.1647   84.1091   11.4044 C.ar    1  UNL1        0.0208
      8 C          63.4340   84.7327   12.7417 C.ar    1  UNL1        0.1005
      9 N          63.1101   86.1788   12.9738 N.ar    1  UNL1       -0.2268
     10 C          62.5170   87.0013   11.8685 C.ar    1  UNL1        0.1435
     11 N          62.0967   88.4396   11.8022 N.ar    1  UNL1       -0.3125
     12 C          61.2412   87.2422    8.2107 C.3     1  UNL1        0.0692
     13 C          59.9921   86.4755    7.8911 C.2     1  UNL1        0.0548
     14 O          58.6649   86.9609    8.3938 O.co2   1  UNL1       -0.5488
     15 O          60.0704   85.2234    7.0687 O.co2   1  UNL1       -0.5488
     16 C          63.4928   90.1208   13.2074 C.ar    1  UNL1        0.0044
     17 C          64.0133   91.1704   12.2707 C.ar    1  UNL1       -0.0011
     18 C          65.3170   91.8538   12.5597 C.ar    1  UNL1        0.0181
     19 C          66.1001   91.4875   13.7855 C.ar    1  UNL1        0.1057
     20 C          65.5796   90.4380   14.7222 C.ar    1  UNL1        0.0219
     21 C          64.2760   89.7546   14.4332 C.ar    1  UNL1        0.0706
     22 S          67.4038   92.1709   14.0745 S.O2    1  UNL1        0.0104
     23 C          68.7074   92.8543   14.3635 C.3     1  UNL1        0.1816
     24 O          67.7212   92.1852   12.6086 O.2     1  UNL1       -0.1686
     25 O          67.0863   92.1566   15.5405 O.2     1  UNL1       -0.1686
     26 C          63.7556   88.7050   15.3699 C.3     1  UNL1        0.4184
     27 F          63.2351   87.6555   16.3067 F       1  UNL1       -0.1659
     28 F          64.6982   87.7034   14.7714 F       1  UNL1       -0.1659
     29 F          62.8129   89.7066   15.9685 F       1  UNL1       -0.1659
@<TRIPOS>UNITY_ATOM_ATTR
14 1
charge -1
@<TRIPOS>BOND
     1     2     3    1
     2     3     4   ar
     3     4    12    1
     4    12    13    1
     5    13    14   ar
     6    13    15   ar
     7     4     5   ar
     8     5     6   ar
     9     6     7   ar
    10     7     8   ar
    11     8     9   ar
    12     9    10   ar
    13    10    11   ar
    14    11     1    1
    15     1    16    1
    16    16    17   ar
    17    17    18   ar
    18    18    19   ar
    19    19    22    1
    20    22    23    1
    21    22    24    2
    22    22    25    2
    23    19    20   ar
    24    20    21   ar
    25    21    26    1
    26    26    27    1
    27    26    28    1
    28    26    29    1
    29    11     3   ar
    30    21    16   ar
    31    10     5   ar
@<TRIPOS>MOLECULE
*****
 29 31 0 0 0
SMALL
GASTEIGER

@<TRIPOS>ATOM
      1 C          62.2978   90.0264   12.6717 C.3     1  UNL1        0.1338
      2 C          63.2058   91.2775    9.7978 C.3     1  UNL1        0.0497
      3 C          63.8544   91.5501   11.1225 C.ar    1  UNL1        0.0355
      4 C          65.0343   92.4456   11.3589 C.ar    1  UNL1       -0.0020
      5 C          65.3462   92.4240   12.8259 C.ar    1  UNL1        0.0317
      6 C          66.4015   93.1145   13.6380 C.ar    1  UNL1        0.0043
      7 C          66.4696   92.8961   15.1204 C.ar    1  UNL1        0.0208
      8 C          65.4825   91.9872   15.7908 C.ar    1  UNL1        0.1005
      9 N          64.4272   91.2967   14.9787 N.ar    1  UNL1       -0.2268
     10 C          64.3590   91.5151   13.4963 C.ar    1  UNL1        0.1435
     11 N          63.4371   90.9750   12.4435 N.ar    1  UNL1       -0.3125
     12 C          65.7728   93.2258   10.3120 C.3     1  UNL1        0.0692
     13 C          67.2612   93.0892   10.1854 C.2     1  UNL1        0.0548
     14 O          68.0911   94.2712    9.7800 O.co2   1  UNL1       -0.5488
     15 O          67.9198   91.7707   10.4643 O.co2   1  UNL1       -0.5488
     16 C          61.8739   89.0873   11.5817 C.ar    1  UNL1        0.0044
     17 C          62.7983   87.9954   11.1308 C.ar    1  UNL1       -0.0011
     18 C          62.3744   87.0562   10.0407 C.ar    1  UNL1        0.0181
     19 C          61.0260   87.2090    9.4014 C.ar    1  UNL1        0.1057
     20 C          60.1016   88.3009    9.8523 C.ar    1  UNL1        0.0219
     21 C          60.5255   89.2400   10.9424 C.ar    1  UNL1        0.0706
     22 S          60.6021   86.2699    8.3113 S.O2    1  UNL1        0.0104
     23 C          60.1782   85.3308    7.2212 C.3     1  UNL1        0.1816
     24 O          59.2047   86.8095    8.3899 O.2     1  UNL1       -0.1686
     25 O          61.9995   85.7303    8.2327 O.2     1  UNL1       -0.1686
     26 C          59.6011   90.3319   11.3932 C.3     1  UNL1        0.4184
     27 F          58.6767   91.4238   11.8439 F       1  UNL1       -0.1659
     28 F          59.1196   89.4608   12.5154 F       1  UNL1       -0.1659
     29 F          60.0826   91.2029   10.2710 F       1  UNL1       -0.1659
@<TRIPOS>UNITY_ATOM_ATTR
14 1
charge -1
@<TRIPOS>BOND
     1     2     3    1
     2     3     4   ar
     3     4    12    1
     4    12    13    1
     5    13    14   ar
     6    13    15   ar
     7     4     5   ar
     8     5     6   ar
     9     6     7   ar
    10     7     8   ar
    11     8     9   ar
    12     9    10   ar
    13    10    11   ar
    14    11     1    1
    15     1    16    1
    16    16    17   ar
    17    17    18   ar
    18    18    19   ar
    19    19    22    1
    20    22    23    1
    21    22    24    2
    22    22    25    2
    23    19    20   ar
    24    20    21   ar
    25    21    26    1
    26    26    27    1
    27    26    28    1
    28    26    29    1
    29    11     3   ar
    30    21    16   ar
    31    10     5   ar
@<TRIPOS>MOLECULE
*****
 29 31 0 0 0
SMALL
GASTEIGER

@<TRIPOS>ATOM
      1 C          62.1270   89.5396   12.3360 C.3     1  UNL1        0.1338
      2 C          63.4634   86.6759   13.1504 C.3     1  UNL1        0.0497
      3 C          62.5888   86.9338   11.9593 C.ar    1  UNL1        0.0355
      4 C          62.1750   85.9208   10.9334 C.ar    1  UNL1       -0.0020
      5 C          61.3050   86.6109    9.9250 C.ar    1  UNL1        0.0317
      6 C          60.6095   86.1145    8.6922 C.ar    1  UNL1        0.0043
      7 C          59.7902   87.0576    7.8621 C.ar    1  UNL1        0.0208
      8 C          59.6664   88.4972    8.2648 C.ar    1  UNL1        0.1005
      9 N          60.3618   88.9937    9.4976 N.ar    1  UNL1       -0.2268
     10 C          61.1811   88.0505   10.3277 C.ar    1  UNL1        0.1435
     11 N          61.9746   88.2501   11.5850 N.ar    1  UNL1       -0.3125
     12 C          62.5630   84.4719   10.9185 C.3     1  UNL1        0.0692
     13 C          63.5758   83.9769    9.9287 C.2     1  UNL1        0.0548
     14 O          63.4868   84.3960    8.4913 O.co2   1  UNL1       -0.5488
     15 O          64.6775   83.0627   10.3766 O.co2   1  UNL1       -0.5488
     16 C          63.1700   90.5327   11.9171 C.ar    1  UNL1        0.0044
     17 C          63.1847   91.0574   10.5119 C.ar    1  UNL1       -0.0011
     18 C          64.2277   92.0506   10.0929 C.ar    1  UNL1        0.0181
     19 C          65.2562   92.5192   11.0792 C.ar    1  UNL1        0.1057
     20 C          65.2415   91.9946   12.4843 C.ar    1  UNL1        0.0219
     21 C          64.1985   91.0014   12.9033 C.ar    1  UNL1        0.0706
     22 S          66.2992   93.5124   10.6602 S.O2    1  UNL1        0.0104
     23 C          67.3423   94.5057   10.2413 C.3     1  UNL1        0.1816
     24 O          65.2896   94.6168   10.7649 O.2     1  UNL1       -0.1686
     25 O          67.3089   92.4080   10.5556 O.2     1  UNL1       -0.1686
     26 C          64.1839   90.4768   14.3085 C.3     1  UNL1        0.4184
     27 F          64.1693   89.9523   15.7137 F       1  UNL1       -0.1659
     28 F          64.9096   89.2445   13.8560 F       1  UNL1       -0.1659
     29 F          63.4582   91.7091   14.7610 F       1  UNL1       -0.1659
@<TRIPOS>UNITY_ATOM_ATTR
14 1
charge -1
@<TRIPOS>BOND
     1     2     3    1
     2     3     4   ar
     3     4    12    1
     4    12    13    1
     5    13    14   ar
     6    13    15   ar
     7     4     5   ar
     8     5     6   ar
     9     6     7   ar
    10     7     8   ar
    11     8     9   ar
    12     9    10   ar
    13    10    11   ar
    14    11     1    1
    15     1    16    1
    16    16    17   ar
    17    17    18   ar
    18    18    19   ar
    19    19    22    1
    20    22    23    1
    21    22    24    2
    22    22    25    2
    23    19    20   ar
    24    20    21   ar
    25    21    26    1
    26    26    27    1
    27    26    28    1
    28    26    29    1
    29    11     3   ar
    30    21    16   ar
    31    10     5   ar
@<TRIPOS>MOLECULE
*****
 29 31 0 0 0
SMALL
GASTEIGER

@<TRIPOS>ATOM
      1 C          64.3260   86.9706   14.6779 C.3     1  UNL1        0.1338
      2 C          65.0195   90.1519   14.8968 C.3     1  UNL1        0.0497
      3 C          64.2410   89.4928   13.7970 C.ar    1  UNL1        0.0355
      4 C          63.6446   90.1803   12.6046 C.ar    1  UNL1       -0.0020
      5 C          62.9572   89.1429   11.7671 C.ar    1  UNL1        0.0317
      6 C          62.1973   89.2365   10.4773 C.ar    1  UNL1        0.0043
      7 C          61.6089   88.0014    9.8622 C.ar    1  UNL1        0.0208
      8 C          61.7805   86.6728   10.5369 C.ar    1  UNL1        0.1005
      9 N          62.5405   86.5792   11.8267 N.ar    1  UNL1       -0.2268
     10 C          63.1288   87.8143   12.4418 C.ar    1  UNL1        0.1435
     11 N          63.9222   88.0305   13.6963 N.ar    1  UNL1       -0.3125
     12 C          63.7219   91.6476   12.3028 C.3     1  UNL1        0.0692
     13 C          65.0553   92.2991   12.0841 C.2     1  UNL1        0.0548
     14 O          65.7370   92.1839   10.7529 O.co2   1  UNL1       -0.5488
     15 O          65.7070   93.0656   13.1966 O.co2   1  UNL1       -0.5488
     16 C          63.9115   85.5462   14.4564 C.ar    1  UNL1        0.0044
     17 C          64.3825   84.8087   13.2380 C.ar    1  UNL1       -0.0011
     18 C          63.9679   83.3843   13.0165 C.ar    1  UNL1        0.0181
     19 C          63.0823   82.6972   14.0133 C.ar    1  UNL1        0.1057
     20 C          62.6114   83.4346   15.2317 C.ar    1  UNL1        0.0219
     21 C          63.0259   84.8591   15.4532 C.ar    1  UNL1        0.0706
     22 S          62.6678   81.2728   13.7918 S.O2    1  UNL1        0.0104
     23 C          62.2533   79.8483   13.5703 C.3     1  UNL1        0.1816
     24 O          64.0092   80.9761   13.1895 O.2     1  UNL1       -0.1686
     25 O          61.3264   81.5694   14.3941 O.2     1  UNL1       -0.1686
     26 C          62.5548   85.5964   16.6716 C.3     1  UNL1        0.4184
     27 F          62.0837   86.3337   17.8899 F       1  UNL1       -0.1659
     28 F          63.9712   85.7055   17.1532 F       1  UNL1       -0.1659
     29 F          61.1385   85.4873   16.1900 F       1  UNL1       -0.1659
@<TRIPOS>UNITY_ATOM_ATTR
14 1
charge -1
@<TRIPOS>BOND
     1     2     3    1
     2     3     4   ar
     3     4    12    1
     4    12    13    1
     5    13    14   ar
     6    13    15   ar
     7     4     5   ar
     8     5     6   ar
     9     6     7   ar
    10     7     8   ar
    11     8     9   ar
    12     9    10   ar
    13    10    11   ar
    14    11     1    1
    15     1    16    1
    16    16    17   ar
    17    17    18   ar
    18    18    19   ar
    19    19    22    1
    20    22    23    1
    21    22    24    2
    22    22    25    2
    23    19    20   ar
    24    20    21   ar
    25    21    26    1
    26    26    27    1
    27    26    28    1
    28    26    29    1
    29    11     3   ar
    30    21    16   ar
    31    10     5   ar
@<TRIPOS>MOLECULE
*****
 29 31 0 0 0
SMALL
GASTEIGER

@<TRIPOS>ATOM
      1 C          62.0952   89.3708   11.6109 C.3     1  UNL1        0.1338
      2 C          64.1019   91.5113   10.1823 C.3     1  UNL1        0.0497
      3 C          63.9832   91.2624   11.6567 C.ar    1  UNL1        0.0355
      4 C          64.7660   91.9538   12.7334 C.ar    1  UNL1       -0.0020
      5 C          64.3275   91.3972   14.0555 C.ar    1  UNL1        0.0317
      6 C          64.7516   91.6995   15.4621 C.ar    1  UNL1        0.0043
      7 C          64.1219   90.9663   16.6092 C.ar    1  UNL1        0.0208
      8 C          63.0680   89.9309   16.3497 C.ar    1  UNL1        0.1005
      9 N          62.6439   89.6287   14.9430 N.ar    1  UNL1       -0.2268
     10 C          63.2736   90.3619   13.7959 C.ar    1  UNL1        0.1435
     11 N          63.0609   90.2786   12.3134 N.ar    1  UNL1       -0.3125
     12 C          65.8050   93.0154   12.5246 C.3     1  UNL1        0.0692
     13 C          67.2545   92.7007   12.7488 C.2     1  UNL1        0.0548
     14 O          68.0858   92.1550   11.6259 O.co2   1  UNL1       -0.5488
     15 O          67.8725   92.9316   14.0960 O.co2   1  UNL1       -0.5488
     16 C          62.2999   87.8853   11.6477 C.ar    1  UNL1        0.0044
     17 C          63.2558   87.2841   12.6351 C.ar    1  UNL1       -0.0011
     18 C          63.4605   85.7986   12.6719 C.ar    1  UNL1        0.0181
     19 C          62.7092   84.9142   11.7214 C.ar    1  UNL1        0.1057
     20 C          61.7533   85.5154   10.7341 C.ar    1  UNL1        0.0219
     21 C          61.5487   87.0009   10.6972 C.ar    1  UNL1        0.0706
     22 S          62.9139   83.4287   11.7582 S.O2    1  UNL1        0.0104
     23 C          63.1186   81.9432   11.7951 C.3     1  UNL1        0.1816
     24 O          63.4187   83.4633   10.3462 O.2     1  UNL1       -0.1686
     25 O          62.4091   83.3941   13.1704 O.2     1  UNL1       -0.1686
     26 C          60.5927   87.6020    9.7099 C.3     1  UNL1        0.4184
     27 F          59.6367   88.2030    8.7226 F       1  UNL1       -0.1659
     28 F          61.6230   87.4640    8.6284 F       1  UNL1       -0.1659
     29 F          59.5625   87.7399   10.7913 F       1  UNL1       -0.1659
@<TRIPOS>UNITY_ATOM_ATTR
14 1
charge -1
@<TRIPOS>BOND
     1     2     3    1
     2     3     4   ar
     3     4    12    1
     4    12    13    1
     5    13    14   ar
     6    13    15   ar
     7     4     5   ar
     8     5     6   ar
     9     6     7   ar
    10     7     8   ar
    11     8     9   ar
    12     9    10   ar
    13    10    11   ar
    14    11     1    1
    15     1    16    1
    16    16    17   ar
    17    17    18   ar
    18    18    19   ar
    19    19    22    1
    20    22    23    1
    21    22    24    2
    22    22    25    2
    23    19    20   ar
    24    20    21   ar
    25    21    26    1
    26    26    27    1
    27    26    28    1
    28    26    29    1
    29    11     3   ar
    30    21    16   ar
    31    10     5   ar
@<TRIPOS>MOLECULE
*****
 29 31 0 0 0
SMALL
GASTEIGER

@<TRIPOS>ATOM
      1 C          62.7704   89.9454   12.9073 C.3     1  UNL1        0.1338
      2 C          64.2750   87.5038   14.4643 C.3     1  UNL1        0.0497
      3 C          63.4698   87.3827   13.2046 C.ar    1  UNL1        0.0355
      4 C          63.2147   86.1180   12.4394 C.ar    1  UNL1       -0.0020
      5 C          62.3655   86.4587   11.2507 C.ar    1  UNL1        0.0317
      6 C          61.8031   85.6162   10.1445 C.ar    1  UNL1        0.0043
      7 C          60.9709   86.2489    9.0689 C.ar    1  UNL1        0.0208
      8 C          60.7011   87.7241    9.0995 C.ar    1  UNL1        0.1005
      9 N          61.2635   88.5666   10.2057 N.ar    1  UNL1       -0.2268
     10 C          62.0957   87.9339   11.2814 C.ar    1  UNL1        0.1435
     11 N          62.7782   88.5049   12.4889 N.ar    1  UNL1       -0.3125
     12 C          63.7202   84.7524   12.7995 C.3     1  UNL1        0.0692
     13 C          62.7902   83.7448   13.4079 C.2     1  UNL1        0.0548
     14 O          62.2346   83.9712   14.7827 O.co2   1  UNL1       -0.5488
     15 O          62.4159   82.5109   12.6415 O.co2   1  UNL1       -0.5488
     16 C          63.7241   90.9152   12.2752 C.ar    1  UNL1        0.0044
     17 C          63.5976   91.2502   10.8185 C.ar    1  UNL1       -0.0011
     18 C          64.5514   92.2201   10.1863 C.ar    1  UNL1        0.0181
     19 C          65.6318   92.8549   11.0108 C.ar    1  UNL1        0.1057
     20 C          65.7583   92.5199   12.4674 C.ar    1  UNL1        0.0219
     21 C          64.8045   91.5501   13.0996 C.ar    1  UNL1        0.0706
     22 S          66.5855   93.8248   10.3786 S.O2    1  UNL1        0.0104
     23 C          67.5393   94.7946    9.7464 C.3     1  UNL1        0.1816
     24 O          65.5254   94.8856   10.4065 O.2     1  UNL1       -0.1686
     25 O          67.6458   92.7640   10.3507 O.2     1  UNL1       -0.1686
     26 C          64.9312   91.2151   14.5562 C.3     1  UNL1        0.4184
     27 F          65.0579   90.8802   16.0128 F       1  UNL1       -0.1659
     28 F          63.5116   91.6456   14.7786 F       1  UNL1       -0.1659
     29 F          66.3507   90.7847   14.3338 F       1  UNL1       -0.1659
@<TRIPOS>UNITY_ATOM_ATTR
14 1
charge -1
@<TRIPOS>BOND
     1     2     3    1
     2     3     4   ar
     3     4    12    1
     4    12    13    1
     5    13    14   ar
     6    13    15   ar
     7     4     5   ar
     8     5     6   ar
     9     6     7   ar
    10     7     8   ar
    11     8     9   ar
    12     9    10   ar
    13    10    11   ar
    14    11     1    1
    15     1    16    1
    16    16    17   ar
    17    17    18   ar
    18    18    19   ar
    19    19    22    1
    20    22    23    1
    21    22    24    2
    22    22    25    2
    23    19    20   ar
    24    20    21   ar
    25    21    26    1
    26    26    27    1
    27    26    28    1
    28    26    29    1
    29    11     3   ar
    30    21    16   ar
    31    10     5   ar
@<TRIPOS>MOLECULE
*****
 29 31 0 0 0
SMALL
GASTEIGER

@<TRIPOS>ATOM
      1 C          62.0514   88.1448   12.4270 C.3     1  UNL1        0.1338
      2 C          63.7385   85.5354   13.4241 C.3     1  UNL1        0.0497
      3 C          63.1165   85.7191   12.0715 C.ar    1  UNL1        0.0355
      4 C          63.1608   84.7356   10.9398 C.ar    1  UNL1       -0.0020
      5 C          62.4126   85.3272    9.7820 C.ar    1  UNL1        0.0317
      6 C          62.1273   84.8117    8.4026 C.ar    1  UNL1        0.0043
      7 C          61.3354   85.6453    7.4394 C.ar    1  UNL1        0.0208
      8 C          60.8287   86.9944    7.8556 C.ar    1  UNL1        0.1005
      9 N          61.1141   87.5099    9.2350 N.ar    1  UNL1       -0.2268
     10 C          61.9060   86.6763   10.1982 C.ar    1  UNL1        0.1435
     11 N          62.3410   86.9185   11.6132 N.ar    1  UNL1       -0.3125
     12 C          63.8348   83.3958   10.9619 C.3     1  UNL1        0.0692
     13 C          63.0994   82.1947   11.4784 C.2     1  UNL1        0.0548
     14 O          62.4539   82.2352   12.8318 O.co2   1  UNL1       -0.5488
     15 O          63.0096   80.9531   10.6415 O.co2   1  UNL1       -0.5488
     16 C          62.9227   89.3581   12.2912 C.ar    1  UNL1        0.0044
     17 C          62.9588   90.1145   10.9962 C.ar    1  UNL1       -0.0011
     18 C          63.8301   91.3279   10.8603 C.ar    1  UNL1        0.0181
     19 C          64.6654   91.7850   12.0194 C.ar    1  UNL1        0.1057
     20 C          64.6293   91.0287   13.3143 C.ar    1  UNL1        0.0219
     21 C          63.7580   89.8153   13.4502 C.ar    1  UNL1        0.0706
     22 S          65.5367   92.9984   11.8836 S.O2    1  UNL1        0.0104
     23 C          66.4080   94.2118   11.7477 C.3     1  UNL1        0.1816
     24 O          65.4198   92.9151   10.3905 O.2     1  UNL1       -0.1686
     25 O          65.6537   93.0817   13.3767 O.2     1  UNL1       -0.1686
     26 C          63.7219   89.0591   14.7451 C.3     1  UNL1        0.4184
     27 F          63.6860   88.3028   16.0399 F       1  UNL1       -0.1659
     28 F          62.5448   89.8757   15.1893 F       1  UNL1       -0.1659
     29 F          64.8991   88.2424   14.3009 F       1  UNL1       -0.1659
@<TRIPOS>UNITY_ATOM_ATTR
14 1
charge -1
@<TRIPOS>BOND
     1     2     3    1
     2     3     4   ar
     3     4    12    1
     4    12    13    1
     5    13    14   ar
     6    13    15   ar
     7     4     5   ar
     8     5     6   ar
     9     6     7   ar
    10     7     8   ar
    11     8     9   ar
    12     9    10   ar
    13    10    11   ar
    14    11     1    1
    15     1    16    1
    16    16    17   ar
    17    17    18   ar
    18    18    19   ar
    19    19    22    1
    20    22    23    1
    21    22    24    2
    22    22    25    2
    23    19    20   ar
    24    20    21   ar
    25    21    26    1
    26    26    27    1
    27    26    28    1
    28    26    29    1
    29    11     3   ar
    30    21    16   ar
    31    10     5   ar
