@<TRIPOS>MOLECULE
*****
 27 29 0 0 0
SMALL
GASTEIGER

@<TRIPOS>ATOM
      1 N          63.2677   89.9528   12.4763 N.pl3   1  UNL1       -0.2872
      2 N          65.8307   93.4916   11.4003 N.3     1  UNL1       -0.2706
      3 C          64.9554   92.8559   10.3612 C.3     1  UNL1        0.0739
      4 C          64.1011   91.6763   10.7199 C.3     1  UNL1        0.0374
      5 C          64.1220   91.1324   12.1176 C.3     1  UNL1        0.0800
      6 C          64.9973   91.7681   13.1567 C.3     1  UNL1        0.0374
      7 C          65.8517   92.9477   12.7980 C.3     1  UNL1        0.0739
      8 C          66.6851   94.6712   11.0416 C.3     1  UNL1        0.0993
      9 C          67.6585   94.5207    9.1629 C.3     1  UNL1        0.0307
     10 C          66.5233   95.3362    9.7069 C.3     1  UNL1        0.1031
     11 C          65.3880   96.1518   10.2509 C.3     1  UNL1        0.0307
     12 O          66.3615   96.0013    8.3721 O.3     1  UNL1       -0.3854
     13 H          65.6345   96.6419    8.4160 H       1  UNL1        0.2103
     14 C          62.3278   89.3715   11.4622 C.ar    1  UNL1        0.0516
     15 C          61.0492   90.0822   11.1304 C.ar    1  UNL1        0.0155
     16 C          60.1093   89.5009   10.1162 C.ar    1  UNL1        0.0116
     17 C          60.4479   88.2087    9.4338 C.ar    1  UNL1        0.0685
     18 C          61.7264   87.4980    9.7655 C.ar    1  UNL1        0.0116
     19 C          62.6664   88.0793   10.7797 C.ar    1  UNL1        0.0155
     20 C          59.5079   87.6274    8.4196 C.1     1  UNL1        0.1004
     21 N          58.5680   87.0460    7.4055 N.1     1  UNL1       -0.1908
     22 C          63.3532   89.3546   13.8492 C.ar    1  UNL1        0.0710
     23 C          64.0834   88.0613   14.0596 C.ar    1  UNL1        0.0180
     24 C          64.1689   87.4631   15.4325 C.ar    1  UNL1        0.0220
     25 C          63.5243   88.1581   16.5950 C.ar    1  UNL1        0.0990
     26 N          62.7942   89.4514   16.3846 N.ar    1  UNL1       -0.2410
     27 C          62.7086   90.0496   15.0117 C.ar    1  UNL1        0.1136
@<TRIPOS>BOND
     1     9    10    1
     2    10    11    1
     3    10    12    1
     4    10     8    1
     5     8     2    1
     6     2     3    1
     7     3     4    1
     8     4     5    1
     9     5     1    1
    10     1    14    1
    11    14    15   ar
    12    15    16   ar
    13    16    17   ar
    14    17    20    1
    15    20    21    3
    16    17    18   ar
    17    18    19   ar
    18     1    22    1
    19    22    23   ar
    20    23    24   ar
    21    24    25   ar
    22    25    26   ar
    23    26    27   ar
    24     5     6    1
    25     6     7    1
    26     7     2    1
    27    19    14   ar
    28    27    22   ar
    29    12    13    1
@<TRIPOS>MOLECULE
*****
 27 29 0 0 0
SMALL
GASTEIGER

@<TRIPOS>ATOM
      1 N          62.0647   86.7474   10.9053 N.pl3   1  UNL1       -0.2872
      2 N          63.8355   90.6404   12.3051 N.3     1  UNL1       -0.2706
      3 C          63.9256   89.4203   13.1730 C.3     1  UNL1        0.0739
      4 C          63.3354   88.1227   12.7064 C.3     1  UNL1        0.0374
      5 C          62.6549   88.0451   11.3719 C.3     1  UNL1        0.0800
      6 C          62.5648   89.2651   10.5040 C.3     1  UNL1        0.0374
      7 C          63.1550   90.5628   10.9706 C.3     1  UNL1        0.0739
      8 C          64.4257   91.9380   12.7717 C.3     1  UNL1        0.0993
      9 C          66.2526   91.7659   13.8360 C.3     1  UNL1        0.0307
     10 C          65.8605   92.2591   12.4748 C.3     1  UNL1        0.1031
     11 C          65.4684   92.7523   11.1135 C.3     1  UNL1        0.0307
     12 O          67.2954   92.5802   12.1778 O.3     1  UNL1       -0.3854
     13 H          67.3656   92.9501   11.2839 H       1  UNL1        0.2103
     14 C          62.4474   85.4637   11.5802 C.ar    1  UNL1        0.0516
     15 C          62.2189   85.2934   13.0530 C.ar    1  UNL1        0.0155
     16 C          62.6017   84.0097   13.7278 C.ar    1  UNL1        0.0116
     17 C          63.2129   82.8962   12.9300 C.ar    1  UNL1        0.0685
     18 C          63.4414   83.0664   11.4574 C.ar    1  UNL1        0.0116
     19 C          63.0587   84.3502   10.7824 C.ar    1  UNL1        0.0155
     20 C          63.5957   81.6124   13.6050 C.1     1  UNL1        0.1004
     21 N          63.9784   80.3287   14.2800 N.1     1  UNL1       -0.1908
     22 C          61.0917   86.7335    9.7639 C.ar    1  UNL1        0.0710
     23 C          61.4103   85.9644    8.5161 C.ar    1  UNL1        0.0180
     24 C          60.4372   85.9506    7.3746 C.ar    1  UNL1        0.0220
     25 C          59.1456   86.7057    7.4809 C.ar    1  UNL1        0.0990
     26 N          58.8269   87.4748    8.7287 N.ar    1  UNL1       -0.2410
     27 C          59.7999   87.4887    9.8702 C.ar    1  UNL1        0.1136
@<TRIPOS>BOND
     1     9    10    1
     2    10    11    1
     3    10    12    1
     4    10     8    1
     5     8     2    1
     6     2     3    1
     7     3     4    1
     8     4     5    1
     9     5     1    1
    10     1    14    1
    11    14    15   ar
    12    15    16   ar
    13    16    17   ar
    14    17    20    1
    15    20    21    3
    16    17    18   ar
    17    18    19   ar
    18     1    22    1
    19    22    23   ar
    20    23    24   ar
    21    24    25   ar
    22    25    26   ar
    23    26    27   ar
    24     5     6    1
    25     6     7    1
    26     7     2    1
    27    19    14   ar
    28    27    22   ar
    29    12    13    1
@<TRIPOS>MOLECULE
*****
 27 29 0 0 0
SMALL
GASTEIGER

@<TRIPOS>ATOM
      1 N          62.1459   86.6802   10.9588 N.pl3   1  UNL1       -0.2872
      2 N          63.8353   90.5500   12.5147 N.3     1  UNL1       -0.2706
      3 C          63.9809   89.2914   13.3177 C.3     1  UNL1        0.0739
      4 C          63.4178   88.0015   12.7991 C.3     1  UNL1        0.0374
      5 C          62.7090   87.9701   11.4775 C.3     1  UNL1        0.0800
      6 C          62.5634   89.2287   10.6745 C.3     1  UNL1        0.0374
      7 C          63.1266   90.5186   11.1932 C.3     1  UNL1        0.0739
      8 C          64.3984   91.8399   13.0334 C.3     1  UNL1        0.0993
      9 C          66.1917   91.6527   14.1510 C.3     1  UNL1        0.0307
     10 C          65.8392   92.1802   12.7918 C.3     1  UNL1        0.1031
     11 C          65.4867   92.7077   11.4326 C.3     1  UNL1        0.0307
     12 O          67.2800   92.5205   12.5502 O.3     1  UNL1       -0.3854
     13 H          67.3757   92.9155   11.6695 H       1  UNL1        0.2103
     14 C          62.5029   85.3845   11.6247 C.ar    1  UNL1        0.0516
     15 C          63.1176   84.2744   10.8246 C.ar    1  UNL1        0.0155
     16 C          63.4747   82.9787   11.4905 C.ar    1  UNL1        0.0116
     17 C          63.2171   82.7928   12.9565 C.ar    1  UNL1        0.0685
     18 C          62.6024   83.9028   13.7566 C.ar    1  UNL1        0.0116
     19 C          62.2453   85.1986   13.0907 C.ar    1  UNL1        0.0155
     20 C          63.5741   81.4970   13.6224 C.1     1  UNL1        0.1004
     21 N          63.9312   80.2012   14.2883 N.1     1  UNL1       -0.1908
     22 C          61.2257   86.6861    9.7743 C.ar    1  UNL1        0.0710
     23 C          59.9296   87.4386    9.8351 C.ar    1  UNL1        0.0180
     24 C          59.0094   87.4444    8.6505 C.ar    1  UNL1        0.0220
     25 C          59.3854   86.6977    7.4051 C.ar    1  UNL1        0.0990
     26 N          60.6815   85.9452    7.3443 N.ar    1  UNL1       -0.2410
     27 C          61.6017   85.9393    8.5288 C.ar    1  UNL1        0.1136
@<TRIPOS>BOND
     1     9    10    1
     2    10    11    1
     3    10    12    1
     4    10     8    1
     5     8     2    1
     6     2     3    1
     7     3     4    1
     8     4     5    1
     9     5     1    1
    10     1    14    1
    11    14    15   ar
    12    15    16   ar
    13    16    17   ar
    14    17    20    1
    15    20    21    3
    16    17    18   ar
    17    18    19   ar
    18     1    22    1
    19    22    23   ar
    20    23    24   ar
    21    24    25   ar
    22    25    26   ar
    23    26    27   ar
    24     5     6    1
    25     6     7    1
    26     7     2    1
    27    19    14   ar
    28    27    22   ar
    29    12    13    1
@<TRIPOS>MOLECULE
*****
 27 29 0 0 0
SMALL
GASTEIGER

@<TRIPOS>ATOM
      1 N          62.8281   88.2775   12.0158 N.pl3   1  UNL1       -0.2872
      2 N          65.3018   91.5606   13.8467 N.3     1  UNL1       -0.2706
      3 C          65.0554   90.2928   14.6096 C.3     1  UNL1        0.0739
      4 C          64.2308   89.1985   13.9993 C.3     1  UNL1        0.0374
      5 C          63.6527   89.3719   12.6261 C.3     1  UNL1        0.0800
      6 C          63.8991   90.6396   11.8632 C.3     1  UNL1        0.0374
      7 C          64.7237   91.7340   12.4735 C.3     1  UNL1        0.0739
      8 C          66.1264   92.6549   14.4570 C.3     1  UNL1        0.0993
      9 C          67.8953   91.9452   13.5259 C.3     1  UNL1        0.0307
     10 C          67.5263   92.3724   14.9156 C.3     1  UNL1        0.1031
     11 C          67.1573   92.7995   16.3053 C.3     1  UNL1        0.0307
     12 O          68.9263   92.0898   15.3742 O.3     1  UNL1       -0.3854
     13 H          69.0031   92.2893   16.3203 H       1  UNL1        0.2103
     14 C          63.0202   86.8575   12.4591 C.ar    1  UNL1        0.0516
     15 C          63.8343   86.5574   13.6828 C.ar    1  UNL1        0.0155
     16 C          64.0264   85.1374   14.1262 C.ar    1  UNL1        0.0116
     17 C          63.4045   84.0174   13.3459 C.ar    1  UNL1        0.0685
     18 C          62.5905   84.3174   12.1223 C.ar    1  UNL1        0.0116
     19 C          62.3983   85.7375   11.6789 C.ar    1  UNL1        0.0155
     20 C          63.5966   82.5973   13.7894 C.1     1  UNL1        0.1004
     21 N          63.7888   81.1774   14.2328 N.1     1  UNL1       -0.1908
     22 C          61.8115   88.6031   10.9621 C.ar    1  UNL1        0.0710
     23 C          61.7897   87.8305    9.6766 C.ar    1  UNL1        0.0180
     24 C          60.7730   88.1562    8.6229 C.ar    1  UNL1        0.0220
     25 C          59.7780   89.2545    8.8547 C.ar    1  UNL1        0.0990
     26 N          59.7998   90.0272   10.1402 N.ar    1  UNL1       -0.2410
     27 C          60.8164   89.7015   11.1939 C.ar    1  UNL1        0.1136
@<TRIPOS>BOND
     1     9    10    1
     2    10    11    1
     3    10    12    1
     4    10     8    1
     5     8     2    1
     6     2     3    1
     7     3     4    1
     8     4     5    1
     9     5     1    1
    10     1    14    1
    11    14    15   ar
    12    15    16   ar
    13    16    17   ar
    14    17    20    1
    15    20    21    3
    16    17    18   ar
    17    18    19   ar
    18     1    22    1
    19    22    23   ar
    20    23    24   ar
    21    24    25   ar
    22    25    26   ar
    23    26    27   ar
    24     5     6    1
    25     6     7    1
    26     7     2    1
    27    19    14   ar
    28    27    22   ar
    29    12    13    1
@<TRIPOS>MOLECULE
*****
 27 29 0 0 0
SMALL
GASTEIGER

@<TRIPOS>ATOM
      1 N          62.0749   87.2485   10.5536 N.pl3   1  UNL1       -0.2872
      2 N          63.1169   82.9413   11.3363 N.3     1  UNL1       -0.2706
      3 C          63.4821   83.5753   10.0269 C.3     1  UNL1        0.0739
      4 C          63.1348   85.0110    9.7660 C.3     1  UNL1        0.0374
      5 C          62.4222   85.8127   10.8145 C.3     1  UNL1        0.0800
      6 C          62.0570   85.1787   12.1239 C.3     1  UNL1        0.0374
      7 C          62.4043   83.7430   12.3848 C.3     1  UNL1        0.0739
      8 C          63.4642   81.5056   11.5972 C.3     1  UNL1        0.0993
      9 C          64.6707   81.9271   13.2903 C.3     1  UNL1        0.0307
     10 C          63.5312   80.9942   13.0057 C.3     1  UNL1        0.1031
     11 C          62.3917   80.0612   12.7212 C.3     1  UNL1        0.0307
     12 O          63.5982   80.4828   14.4143 O.3     1  UNL1       -0.3854
     13 H          62.9179   79.8037   14.5445 H       1  UNL1        0.2103
     14 C          62.7474   88.3370   11.3364 C.ar    1  UNL1        0.0516
     15 C          62.8457   89.7206   10.7652 C.ar    1  UNL1        0.0155
     16 C          63.5182   90.8091   11.5480 C.ar    1  UNL1        0.0116
     17 C          64.0925   90.5141   12.9020 C.ar    1  UNL1        0.0685
     18 C          63.9942   89.1306   13.4732 C.ar    1  UNL1        0.0116
     19 C          63.3217   88.0420   12.6904 C.ar    1  UNL1        0.0155
     20 C          64.7650   91.6027   13.6848 C.1     1  UNL1        0.1004
     21 N          65.4375   92.6913   14.4675 N.1     1  UNL1       -0.1908
     22 C          61.0551   87.5957    9.5099 C.ar    1  UNL1        0.0710
     23 C          60.3040   86.5062    8.8035 C.ar    1  UNL1        0.0180
     24 C          59.2841   86.8535    7.7598 C.ar    1  UNL1        0.0220
     25 C          59.0153   88.2901    7.4225 C.ar    1  UNL1        0.0990
     26 N          59.7664   89.3796    8.1289 N.ar    1  UNL1       -0.2410
     27 C          60.7863   89.0324    9.1726 C.ar    1  UNL1        0.1136
@<TRIPOS>BOND
     1     9    10    1
     2    10    11    1
     3    10    12    1
     4    10     8    1
     5     8     2    1
     6     2     3    1
     7     3     4    1
     8     4     5    1
     9     5     1    1
    10     1    14    1
    11    14    15   ar
    12    15    16   ar
    13    16    17   ar
    14    17    20    1
    15    20    21    3
    16    17    18   ar
    17    18    19   ar
    18     1    22    1
    19    22    23   ar
    20    23    24   ar
    21    24    25   ar
    22    25    26   ar
    23    26    27   ar
    24     5     6    1
    25     6     7    1
    26     7     2    1
    27    19    14   ar
    28    27    22   ar
    29    12    13    1
@<TRIPOS>MOLECULE
*****
 27 29 0 0 0
SMALL
GASTEIGER

@<TRIPOS>ATOM
      1 N          63.0654   88.7745   12.3645 N.pl3   1  UNL1       -0.2872
      2 N          63.6901   84.4353   13.3802 N.3     1  UNL1       -0.2706
      3 C          62.8883   84.8146   12.1706 C.3     1  UNL1        0.0739
      4 C          62.6800   86.2610   11.8320 C.3     1  UNL1        0.0374
      5 C          63.2737   87.3281   12.7031 C.3     1  UNL1        0.0800
      6 C          64.0755   86.9489   13.9127 C.3     1  UNL1        0.0374
      7 C          64.2837   85.5025   14.2512 C.3     1  UNL1        0.0739
      8 C          63.8983   82.9889   13.7187 C.3     1  UNL1        0.0993
      9 C          63.0494   81.1620   13.0543 C.3     1  UNL1        0.0307
     10 C          62.7348   82.1433   14.1442 C.3     1  UNL1        0.1031
     11 C          62.4202   83.1245   15.2342 C.3     1  UNL1        0.0307
     12 O          61.5713   81.2975   14.5697 O.3     1  UNL1       -0.3854
     13 H          61.1286   81.7134   15.3260 H       1  UNL1        0.2103
     14 C          63.9773   89.8179   12.9386 C.ar    1  UNL1        0.0516
     15 C          64.2939   91.0537   12.1493 C.ar    1  UNL1        0.0155
     16 C          65.2058   92.0971   12.7234 C.ar    1  UNL1        0.0116
     17 C          65.8012   91.9049   14.0867 C.ar    1  UNL1        0.0685
     18 C          65.4847   90.6693   14.8759 C.ar    1  UNL1        0.0116
     19 C          64.5727   89.6257   14.3019 C.ar    1  UNL1        0.0155
     20 C          66.7131   92.9484   14.6608 C.1     1  UNL1        0.1004
     21 N          67.6250   93.9919   15.2348 N.1     1  UNL1       -0.1908
     22 C          61.9453   89.1774   11.4519 C.ar    1  UNL1        0.0710
     23 C          62.0112   88.8436    9.9910 C.ar    1  UNL1        0.0180
     24 C          60.8910   89.2466    9.0783 C.ar    1  UNL1        0.0220
     25 C          59.7050   89.9833    9.6266 C.ar    1  UNL1        0.0990
     26 N          59.6392   90.3171   11.0875 N.ar    1  UNL1       -0.2410
     27 C          60.7593   89.9142   12.0001 C.ar    1  UNL1        0.1136
@<TRIPOS>BOND
     1     9    10    1
     2    10    11    1
     3    10    12    1
     4    10     8    1
     5     8     2    1
     6     2     3    1
     7     3     4    1
     8     4     5    1
     9     5     1    1
    10     1    14    1
    11    14    15   ar
    12    15    16   ar
    13    16    17   ar
    14    17    20    1
    15    20    21    3
    16    17    18   ar
    17    18    19   ar
    18     1    22    1
    19    22    23   ar
    20    23    24   ar
    21    24    25   ar
    22    25    26   ar
    23    26    27   ar
    24     5     6    1
    25     6     7    1
    26     7     2    1
    27    19    14   ar
    28    27    22   ar
    29    12    13    1
@<TRIPOS>MOLECULE
*****
 27 29 0 0 0
SMALL
GASTEIGER

@<TRIPOS>ATOM
      1 N          63.2135   88.9727   12.5485 N.pl3   1  UNL1       -0.2872
      2 N          63.8441   84.6824   13.7507 N.3     1  UNL1       -0.2706
      3 C          64.3911   85.7884   14.6036 C.3     1  UNL1        0.0739
      4 C          64.1808   87.2185   14.2029 C.3     1  UNL1        0.0374
      5 C          63.4237   87.5426   12.9492 C.3     1  UNL1        0.0800
      6 C          62.8767   86.4366   12.0964 C.3     1  UNL1        0.0374
      7 C          63.0869   85.0065   12.4971 C.3     1  UNL1        0.0739
      8 C          64.0543   83.2523   14.1514 C.3     1  UNL1        0.0993
      9 C          63.4450   81.3778   13.3673 C.3     1  UNL1        0.0307
     10 C          62.8740   82.3497   14.3569 C.3     1  UNL1        0.1031
     11 C          62.3031   83.3216   15.3465 C.3     1  UNL1        0.0307
     12 O          61.6937   81.4471   14.5624 O.3     1  UNL1       -0.3854
     13 H          61.0912   81.8451   15.2100 H       1  UNL1        0.2103
     14 C          64.1497   90.0354   13.0426 C.ar    1  UNL1        0.0516
     15 C          64.7864   89.9046   14.3945 C.ar    1  UNL1        0.0155
     16 C          65.7226   90.9673   14.8885 C.ar    1  UNL1        0.0116
     17 C          66.0221   92.1609   14.0308 C.ar    1  UNL1        0.0685
     18 C          65.3854   92.2917   12.6790 C.ar    1  UNL1        0.0116
     19 C          64.4491   91.2290   12.1848 C.ar    1  UNL1        0.0155
     20 C          66.9584   93.2236   14.5249 C.1     1  UNL1        0.1004
     21 N          67.8945   94.2863   15.0190 N.1     1  UNL1       -0.1908
     22 C          62.0670   89.3401   11.6537 C.ar    1  UNL1        0.0710
     23 C          62.1918   89.1735   10.1682 C.ar    1  UNL1        0.0180
     24 C          61.0453   89.5409    9.2734 C.ar    1  UNL1        0.0220
     25 C          59.7741   90.0750    9.8641 C.ar    1  UNL1        0.0990
     26 N          59.6494   90.2417   11.3496 N.ar    1  UNL1       -0.2410
     27 C          60.7958   89.8743   12.2444 C.ar    1  UNL1        0.1136
@<TRIPOS>BOND
     1     9    10    1
     2    10    11    1
     3    10    12    1
     4    10     8    1
     5     8     2    1
     6     2     3    1
     7     3     4    1
     8     4     5    1
     9     5     1    1
    10     1    14    1
    11    14    15   ar
    12    15    16   ar
    13    16    17   ar
    14    17    20    1
    15    20    21    3
    16    17    18   ar
    17    18    19   ar
    18     1    22    1
    19    22    23   ar
    20    23    24   ar
    21    24    25   ar
    22    25    26   ar
    23    26    27   ar
    24     5     6    1
    25     6     7    1
    26     7     2    1
    27    19    14   ar
    28    27    22   ar
    29    12    13    1
@<TRIPOS>MOLECULE
*****
 27 29 0 0 0
SMALL
GASTEIGER

@<TRIPOS>ATOM
      1 N          63.1754   88.1705   12.6369 N.pl3   1  UNL1       -0.2872
      2 N          65.0663   91.6822   14.7207 N.3     1  UNL1       -0.2706
      3 C          64.3564   90.6295   15.5193 C.3     1  UNL1        0.0739
      4 C          63.7261   89.4589   14.8247 C.3     1  UNL1        0.0374
      5 C          63.8057   89.3410   13.3315 C.3     1  UNL1        0.0800
      6 C          64.5155   90.3938   12.5329 C.3     1  UNL1        0.0374
      7 C          65.1458   91.5643   13.2275 C.3     1  UNL1        0.0739
      8 C          65.6966   92.8528   15.4153 C.3     1  UNL1        0.0993
      9 C          67.5624   92.3062   16.2637 C.3     1  UNL1        0.0307
     10 C          67.1292   93.2041   15.1430 C.3     1  UNL1        0.1031
     11 C          66.6959   94.1019   14.0222 C.3     1  UNL1        0.0307
     12 O          68.5619   93.5553   14.8706 O.3     1  UNL1       -0.3854
     13 H          68.6066   94.1785   14.1286 H       1  UNL1        0.2103
     14 C          62.3055   88.3910   11.4349 C.ar    1  UNL1        0.0516
     15 C          61.3841   89.5736   11.3827 C.ar    1  UNL1        0.0155
     16 C          60.5143   89.7941   10.1807 C.ar    1  UNL1        0.0116
     17 C          60.5658   88.8321    9.0310 C.ar    1  UNL1        0.0685
     18 C          61.4872   87.6496    9.0832 C.ar    1  UNL1        0.0116
     19 C          62.3571   87.4290   10.2852 C.ar    1  UNL1        0.0155
     20 C          59.6960   89.0527    7.8290 C.1     1  UNL1        0.1004
     21 N          58.8261   89.2733    6.6271 N.1     1  UNL1       -0.1908
     22 C          63.4149   86.7794   13.1442 C.ar    1  UNL1        0.0710
     23 C          64.3188   86.5551   14.3201 C.ar    1  UNL1        0.0180
     24 C          64.5583   85.1640   14.8275 C.ar    1  UNL1        0.0220
     25 C          63.8939   83.9971   14.1589 C.ar    1  UNL1        0.0990
     26 N          62.9900   84.2213   12.9831 N.ar    1  UNL1       -0.2410
     27 C          62.7505   85.6124   12.4757 C.ar    1  UNL1        0.1136
@<TRIPOS>BOND
     1     9    10    1
     2    10    11    1
     3    10    12    1
     4    10     8    1
     5     8     2    1
     6     2     3    1
     7     3     4    1
     8     4     5    1
     9     5     1    1
    10     1    14    1
    11    14    15   ar
    12    15    16   ar
    13    16    17   ar
    14    17    20    1
    15    20    21    3
    16    17    18   ar
    17    18    19   ar
    18     1    22    1
    19    22    23   ar
    20    23    24   ar
    21    24    25   ar
    22    25    26   ar
    23    26    27   ar
    24     5     6    1
    25     6     7    1
    26     7     2    1
    27    19    14   ar
    28    27    22   ar
    29    12    13    1
@<TRIPOS>MOLECULE
*****
 27 29 0 0 0
SMALL
GASTEIGER

@<TRIPOS>ATOM
      1 N          62.9360   88.1542   12.1993 N.pl3   1  UNL1       -0.2872
      2 N          63.4380   83.9438   13.7061 N.3     1  UNL1       -0.2706
      3 C          62.5485   84.2184   12.5300 C.3     1  UNL1        0.0739
      4 C          62.3812   85.6219   12.0277 C.3     1  UNL1        0.0374
      5 C          63.1033   86.7507   12.7016 C.3     1  UNL1        0.0800
      6 C          63.9928   86.4761   13.8777 C.3     1  UNL1        0.0374
      7 C          64.1601   85.0726   14.3800 C.3     1  UNL1        0.0739
      8 C          63.6053   82.5403   14.2084 C.3     1  UNL1        0.0993
      9 C          61.9109   81.2643   14.2339 C.3     1  UNL1        0.0307
     10 C          63.1352   81.3847   13.3757 C.3     1  UNL1        0.1031
     11 C          64.3595   81.5050   12.5175 C.3     1  UNL1        0.0307
     12 O          62.6651   80.2289   12.5429 O.3     1  UNL1       -0.3854
     13 H          63.3102   80.0532   11.8402 H       1  UNL1        0.2103
     14 C          62.0647   88.4259   11.0090 C.ar    1  UNL1        0.0516
     15 C          61.0881   89.5640   11.0385 C.ar    1  UNL1        0.0155
     16 C          60.2168   89.8357    9.8481 C.ar    1  UNL1        0.0116
     17 C          60.3221   88.9693    8.6282 C.ar    1  UNL1        0.0685
     18 C          61.2987   87.8312    8.5986 C.ar    1  UNL1        0.0116
     19 C          62.1700   87.5595    9.7890 C.ar    1  UNL1        0.0155
     20 C          59.4507   89.2411    7.4378 C.1     1  UNL1        0.1004
     21 N          58.5794   89.5128    6.2475 N.1     1  UNL1       -0.1908
     22 C          63.6400   89.2859   12.8874 C.ar    1  UNL1        0.0710
     23 C          64.2411   89.0800   14.2462 C.ar    1  UNL1        0.0180
     24 C          64.9451   90.2118   14.9342 C.ar    1  UNL1        0.0220
     25 C          65.0479   91.5496   14.2635 C.ar    1  UNL1        0.0990
     26 N          64.4469   91.7555   12.9048 N.ar    1  UNL1       -0.2410
     27 C          63.7429   90.6237   12.2167 C.ar    1  UNL1        0.1136
@<TRIPOS>BOND
     1     9    10    1
     2    10    11    1
     3    10    12    1
     4    10     8    1
     5     8     2    1
     6     2     3    1
     7     3     4    1
     8     4     5    1
     9     5     1    1
    10     1    14    1
    11    14    15   ar
    12    15    16   ar
    13    16    17   ar
    14    17    20    1
    15    20    21    3
    16    17    18   ar
    17    18    19   ar
    18     1    22    1
    19    22    23   ar
    20    23    24   ar
    21    24    25   ar
    22    25    26   ar
    23    26    27   ar
    24     5     6    1
    25     6     7    1
    26     7     2    1
    27    19    14   ar
    28    27    22   ar
    29    12    13    1
