@<TRIPOS>MOLECULE
*****
 24 27 0 0 0
SMALL
GASTEIGER

@<TRIPOS>ATOM
      1 C          66.6107   92.4137   13.7245 C.2     1  UNL1        0.1227
      2 C          65.9331   91.2993   14.4654 C.2     1  UNL1        0.0395
      3 C          64.7715   90.5825   13.8433 C.2     1  UNL1        0.0386
      4 BR         64.0939   89.4681   14.5842 Br      1  UNL1       -0.0489
      5 C          64.2877   90.9800   12.4803 C.2     1  UNL1        0.0281
      6 C          63.1748   90.4603   11.6192 C.2     1  UNL1        0.0963
      7 C          63.1646   91.2534   10.3461 C.2     1  UNL1        0.1049
      8 N          64.2713   92.2633   10.4204 N.2     1  UNL1       -0.2475
      9 C          64.9653   92.0943   11.7393 C.2     1  UNL1        0.0673
     10 C          66.1268   92.8112   12.3614 C.3     1  UNL1        0.1096
     11 C          67.9323   93.1462   15.8379 C.3     1  UNL1        0.2520
     12 O          67.7722   93.1305   14.3466 O.2     1  UNL1       -0.4753
     13 C          62.2368   89.3435   11.9697 C.2     1  UNL1        0.3428
     14 O          60.9629   89.6370   12.7052 O.2     1  UNL1       -0.2448
     15 O          62.5727   87.9332   11.5847 O.3     1  UNL1       -0.4454
     16 C          61.4837   86.9904   11.1658 C.3     1  UNL1        0.2087
     17 C          61.4807   86.4163    9.7800 C.3     1  UNL1        0.0445
     18 C          60.2586   86.5406    8.9193 C.3     1  UNL1        0.0210
     19 C          60.2557   85.9665    7.5336 C.3     1  UNL1        0.0722
     20 N          61.4749   85.2681    7.0085 N.3     1  UNL1       -0.2727
     21 C          62.6971   85.1438    7.8692 C.3     1  UNL1        0.0722
     22 C          62.7000   85.7179    9.2550 C.3     1  UNL1        0.0210
     23 C          61.5239   85.5667    7.7742 C.3     1  UNL1        0.0722
     24 C          61.5266   86.0858    9.0273 C.3     1  UNL1        0.0210
@<TRIPOS>BOND
     1    11    12    1
     2    12     1    1
     3     1     2    2
     4     2     3    1
     5     3     4    1
     6     3     5    2
     7     5     6    1
     8     6    13    1
     9    13    14    2
    10    13    15    1
    11    15    16    1
    12    16    17    1
    13    17    18    1
    14    18    19    1
    15    19    20    1
    16    20    21    1
    17    21    22    1
    18    20    23    1
    19    23    24    1
    20     6     7    2
    21     7     8    1
    22     8     9    2
    23     9    10    1
    24    10     1    1
    25     9     5    1
    26    22    17    1
    27    24    17    1
@<TRIPOS>MOLECULE
*****
 24 27 0 0 0
SMALL
GASTEIGER

@<TRIPOS>ATOM
      1 C          66.4183   92.6028   13.7142 C.2     1  UNL1        0.1227
      2 C          65.7948   91.4782   14.4866 C.2     1  UNL1        0.0395
      3 C          64.6976   90.6623   13.8695 C.2     1  UNL1        0.0386
      4 BR         64.0741   89.5377   14.6419 Br      1  UNL1       -0.0489
      5 C          64.2241   90.9710   12.4801 C.2     1  UNL1        0.0281
      6 C          63.1690   90.3450   11.6171 C.2     1  UNL1        0.0963
      7 C          63.1404   91.0826   10.3113 C.2     1  UNL1        0.1049
      8 N          64.1779   92.1645   10.3674 N.2     1  UNL1       -0.2475
      9 C          64.8476   92.0955   11.7078 C.2     1  UNL1        0.0673
     10 C          65.9447   92.9114   12.3248 C.3     1  UNL1        0.1096
     11 C          67.8538   93.2451   15.7822 C.3     1  UNL1        0.2520
     12 O          67.5154   93.4186   14.3312 O.2     1  UNL1       -0.4753
     13 C          62.2958   89.1850   11.9937 C.2     1  UNL1        0.3428
     14 O          60.8702   89.4193   12.3972 O.2     1  UNL1       -0.2448
     15 O          62.8481   87.7906   11.9669 O.3     1  UNL1       -0.4454
     16 C          62.0776   86.6913   11.2976 C.3     1  UNL1        0.2087
     17 C          62.6194   85.2926   11.2904 C.3     1  UNL1        0.0445
     18 C          62.6000   84.4743   12.5473 C.3     1  UNL1        0.0210
     19 C          63.1418   83.0756   12.5399 C.3     1  UNL1        0.0722
     20 N          63.7030   82.4952   11.2757 N.3     1  UNL1       -0.2727
     21 C          63.7223   83.3136   10.0188 C.3     1  UNL1        0.0722
     22 C          63.1805   84.7123   10.0261 C.3     1  UNL1        0.0210
     23 C          63.4174   83.2661   11.2308 C.3     1  UNL1        0.0722
     24 C          62.9275   84.5309   11.2373 C.3     1  UNL1        0.0210
@<TRIPOS>BOND
     1    11    12    1
     2    12     1    1
     3     1     2    2
     4     2     3    1
     5     3     4    1
     6     3     5    2
     7     5     6    1
     8     6    13    1
     9    13    14    2
    10    13    15    1
    11    15    16    1
    12    16    17    1
    13    17    18    1
    14    18    19    1
    15    19    20    1
    16    20    21    1
    17    21    22    1
    18    20    23    1
    19    23    24    1
    20     6     7    2
    21     7     8    1
    22     8     9    2
    23     9    10    1
    24    10     1    1
    25     9     5    1
    26    22    17    1
    27    24    17    1
@<TRIPOS>MOLECULE
*****
 24 27 0 0 0
SMALL
GASTEIGER

@<TRIPOS>ATOM
      1 C          66.0178   93.3411   11.8356 C.2     1  UNL1        0.1227
      2 C          65.0536   92.8656   10.7895 C.2     1  UNL1        0.0395
      3 C          64.1463   91.7063   11.0772 C.2     1  UNL1        0.0386
      4 BR         63.1821   91.2309   10.0311 Br      1  UNL1       -0.0489
      5 C          64.2031   91.0224   12.4110 C.2     1  UNL1        0.0281
      6 C          63.4382   89.8634   12.9781 C.2     1  UNL1        0.0963
      7 C          63.9296   89.6225   14.3747 C.2     1  UNL1        0.1049
      8 N          64.9982   90.6327   14.6707 N.2     1  UNL1       -0.2475
      9 C          65.1673   91.4978   13.4571 C.2     1  UNL1        0.0673
     10 C          66.0746   92.6571   13.1694 C.3     1  UNL1        0.1096
     11 C          66.8998   95.1558   10.1989 C.3     1  UNL1        0.2520
     12 O          66.9251   94.5003   11.5479 O.2     1  UNL1       -0.4753
     13 C          62.3695   89.0825   12.2725 C.2     1  UNL1        0.3428
     14 O          60.9318   89.4891   12.4055 O.2     1  UNL1       -0.2448
     15 O          62.7384   87.8948   11.4338 O.3     1  UNL1       -0.4454
     16 C          61.7037   86.8610   11.1011 C.3     1  UNL1        0.2087
     17 C          61.6071   86.3186    9.7060 C.3     1  UNL1        0.0445
     18 C          62.7792   85.6107    9.0936 C.3     1  UNL1        0.0210
     19 C          62.6825   85.0682    7.6985 C.3     1  UNL1        0.0722
     20 N          61.4137   85.2337    6.9157 N.3     1  UNL1       -0.2727
     21 C          60.2416   85.9416    7.5281 C.3     1  UNL1        0.0722
     22 C          60.3383   86.4840    8.9232 C.3     1  UNL1        0.0210
     23 C          61.4194   85.5478    7.6767 C.3     1  UNL1        0.0722
     24 C          61.5067   86.0383    8.9382 C.3     1  UNL1        0.0210
@<TRIPOS>BOND
     1    11    12    1
     2    12     1    1
     3     1     2    2
     4     2     3    1
     5     3     4    1
     6     3     5    2
     7     5     6    1
     8     6    13    1
     9    13    14    2
    10    13    15    1
    11    15    16    1
    12    16    17    1
    13    17    18    1
    14    18    19    1
    15    19    20    1
    16    20    21    1
    17    21    22    1
    18    20    23    1
    19    23    24    1
    20     6     7    2
    21     7     8    1
    22     8     9    2
    23     9    10    1
    24    10     1    1
    25     9     5    1
    26    22    17    1
    27    24    17    1
@<TRIPOS>MOLECULE
*****
 24 27 0 0 0
SMALL
GASTEIGER

@<TRIPOS>ATOM
      1 C          65.9695   93.1719   11.9272 C.2     1  UNL1        0.1227
      2 C          64.9920   92.7912   10.8550 C.2     1  UNL1        0.0395
      3 C          64.0608   91.6342   11.0656 C.2     1  UNL1        0.0386
      4 BR         63.0833   91.2535    9.9935 Br      1  UNL1       -0.0489
      5 C          64.1071   90.8580   12.3483 C.2     1  UNL1        0.0281
      6 C          63.3192   89.6788   12.8369 C.2     1  UNL1        0.0963
      7 C          63.8097   89.3308   14.2110 C.2     1  UNL1        0.1049
      8 N          64.9008   90.2948   14.5717 N.2     1  UNL1       -0.2475
      9 C          65.0846   91.2387   13.4204 C.2     1  UNL1        0.0673
     10 C          66.0158   92.3956   13.2099 C.3     1  UNL1        0.1096
     11 C          66.5886   95.3630   10.6760 C.3     1  UNL1        0.2520
     12 O          66.9007   94.3289   11.7167 O.2     1  UNL1       -0.4753
     13 C          62.2316   88.9719   12.0836 C.2     1  UNL1        0.3428
     14 O          60.8006   89.3794   12.2737 O.2     1  UNL1       -0.2448
     15 O          62.5751   87.8574   11.1402 O.3     1  UNL1       -0.4454
     16 C          61.8059   86.5705   11.1879 C.3     1  UNL1        0.2087
     17 C          62.5362   85.2630   11.2728 C.3     1  UNL1        0.0445
     18 C          62.6825   84.5701   12.5951 C.3     1  UNL1        0.0210
     19 C          63.4127   83.2626   12.6799 C.3     1  UNL1        0.0722
     20 N          63.9967   82.6481   11.4425 N.3     1  UNL1       -0.2727
     21 C          63.8504   83.3410   10.1202 C.3     1  UNL1        0.0722
     22 C          63.1201   84.6484   10.0353 C.3     1  UNL1        0.0210
     23 C          63.6051   83.3659   11.3463 C.3     1  UNL1        0.0722
     24 C          62.9448   84.5482   11.2695 C.3     1  UNL1        0.0210
@<TRIPOS>BOND
     1    11    12    1
     2    12     1    1
     3     1     2    2
     4     2     3    1
     5     3     4    1
     6     3     5    2
     7     5     6    1
     8     6    13    1
     9    13    14    2
    10    13    15    1
    11    15    16    1
    12    16    17    1
    13    17    18    1
    14    18    19    1
    15    19    20    1
    16    20    21    1
    17    21    22    1
    18    20    23    1
    19    23    24    1
    20     6     7    2
    21     7     8    1
    22     8     9    2
    23     9    10    1
    24    10     1    1
    25     9     5    1
    26    22    17    1
    27    24    17    1
@<TRIPOS>MOLECULE
*****
 24 27 0 0 0
SMALL
GASTEIGER

@<TRIPOS>ATOM
      1 C          66.3590   92.9561   11.2823 C.2     1  UNL1        0.1227
      2 C          66.7225   92.7295   12.7199 C.2     1  UNL1        0.0395
      3 C          65.8290   91.9048   13.5984 C.2     1  UNL1        0.0386
      4 BR         66.1925   91.6782   15.0359 Br      1  UNL1       -0.0489
      5 C          64.5722   91.3067   13.0393 C.2     1  UNL1        0.0281
      6 C          63.5038   90.4554   13.6589 C.2     1  UNL1        0.0963
      7 C          62.4800   90.1559   12.6043 C.2     1  UNL1        0.1049
      8 N          62.9157   90.8220   11.3330 N.2     1  UNL1       -0.2475
      9 C          64.2087   91.5333   11.6018 C.2     1  UNL1        0.0673
     10 C          65.1021   92.3579   10.7233 C.3     1  UNL1        0.1096
     11 C          68.0983   93.1154    9.3590 C.3     1  UNL1        0.2520
     12 O          67.2524   93.7807   10.4038 O.2     1  UNL1       -0.4753
     13 C          63.4659   89.9861   15.0831 C.2     1  UNL1        0.3428
     14 O          63.3009   90.9785   16.1957 O.2     1  UNL1       -0.2448
     15 O          63.5929   88.5244   15.3947 O.3     1  UNL1       -0.4454
     16 C          64.4886   87.6551   14.5627 C.3     1  UNL1        0.2087
     17 C          64.1266   86.2198   14.3204 C.3     1  UNL1        0.0445
     18 C          63.3912   85.8323   13.0718 C.3     1  UNL1        0.0210
     19 C          63.0292   84.3969   12.8295 C.3     1  UNL1        0.0722
     20 N          63.4027   83.3491   13.8358 N.3     1  UNL1       -0.2727
     21 C          64.1381   83.7366   15.0844 C.3     1  UNL1        0.0722
     22 C          64.5001   85.1720   15.3267 C.3     1  UNL1        0.0210
     23 C          63.6225   84.1227   14.0123 C.3     1  UNL1        0.0722
     24 C          63.9499   85.4205   14.2315 C.3     1  UNL1        0.0210
@<TRIPOS>BOND
     1    11    12    1
     2    12     1    1
     3     1     2    2
     4     2     3    1
     5     3     4    1
     6     3     5    2
     7     5     6    1
     8     6    13    1
     9    13    14    2
    10    13    15    1
    11    15    16    1
    12    16    17    1
    13    17    18    1
    14    18    19    1
    15    19    20    1
    16    20    21    1
    17    21    22    1
    18    20    23    1
    19    23    24    1
    20     6     7    2
    21     7     8    1
    22     8     9    2
    23     9    10    1
    24    10     1    1
    25     9     5    1
    26    22    17    1
    27    24    17    1
@<TRIPOS>MOLECULE
*****
 24 27 0 0 0
SMALL
GASTEIGER

@<TRIPOS>ATOM
      1 C          61.8204   86.8029   10.1841 C.2     1  UNL1        0.1227
      2 C          61.8165   88.2784    9.9141 C.2     1  UNL1        0.0395
      3 C          62.4531   89.2214   10.8917 C.2     1  UNL1        0.0386
      4 BR         62.4492   90.6969   10.6216 Br      1  UNL1       -0.0489
      5 C          63.0934   88.6889   12.1392 C.2     1  UNL1        0.0281
      6 C          63.7933   89.3703   13.2776 C.2     1  UNL1        0.0963
      7 C          64.2297   88.3160   14.2512 C.2     1  UNL1        0.1049
      8 N          63.7995   86.9830   13.7145 N.2     1  UNL1       -0.2475
      9 C          63.0972   87.2135   12.4093 C.2     1  UNL1        0.0673
     10 C          62.4607   86.2704   11.4318 C.3     1  UNL1        0.1096
     11 C          60.1443   86.3615    8.2488 C.3     1  UNL1        0.2520
     12 O          61.1839   85.8598    9.2066 O.2     1  UNL1       -0.4753
     13 C          64.0174   90.8469   13.4177 C.2     1  UNL1        0.3428
     14 O          63.6770   91.5383   14.7045 O.2     1  UNL1       -0.2448
     15 O          64.5819   91.6319   12.2710 O.3     1  UNL1       -0.4454
     16 C          65.9111   92.3131   12.4104 C.3     1  UNL1        0.2087
     17 C          66.6408   92.7906   11.1900 C.3     1  UNL1        0.0445
     18 C          67.8015   92.0055   10.6549 C.3     1  UNL1        0.0210
     19 C          68.5312   92.4831    9.4345 C.3     1  UNL1        0.0722
     20 N          68.1002   93.7459    8.7492 N.3     1  UNL1       -0.2727
     21 C          66.9395   94.5310    9.2843 C.3     1  UNL1        0.0722
     22 C          66.2098   94.0534   10.5047 C.3     1  UNL1        0.0210
     23 C          67.6695   93.5239    9.4149 C.3     1  UNL1        0.0722
     24 C          67.0097   93.0921   10.5184 C.3     1  UNL1        0.0210
@<TRIPOS>BOND
     1    11    12    1
     2    12     1    1
     3     1     2    2
     4     2     3    1
     5     3     4    1
     6     3     5    2
     7     5     6    1
     8     6    13    1
     9    13    14    2
    10    13    15    1
    11    15    16    1
    12    16    17    1
    13    17    18    1
    14    18    19    1
    15    19    20    1
    16    20    21    1
    17    21    22    1
    18    20    23    1
    19    23    24    1
    20     6     7    2
    21     7     8    1
    22     8     9    2
    23     9    10    1
    24    10     1    1
    25     9     5    1
    26    22    17    1
    27    24    17    1
@<TRIPOS>MOLECULE
*****
 24 27 0 0 0
SMALL
GASTEIGER

@<TRIPOS>ATOM
      1 C          61.7791   88.9120   10.1805 C.2     1  UNL1        0.1227
      2 C          61.7690   87.4254   10.3804 C.2     1  UNL1        0.0395
      3 C          62.4493   86.8246   11.5748 C.2     1  UNL1        0.0386
      4 BR         62.4392   85.3380   11.7747 Br      1  UNL1       -0.0489
      5 C          63.1397   87.7104   12.5691 C.2     1  UNL1        0.0281
      6 C          63.8892   87.4076   13.8326 C.2     1  UNL1        0.0963
      7 C          64.3626   88.7069   14.4136 C.2     1  UNL1        0.1049
      8 N          63.9056   89.8129   13.5091 N.2     1  UNL1       -0.2475
      9 C          63.1498   89.1970   12.3691 C.2     1  UNL1        0.0673
     10 C          62.4695   89.7978   11.1749 C.3     1  UNL1        0.1096
     11 C          59.9536   88.7951    8.3357 C.3     1  UNL1        0.2520
     12 O          61.0988   89.5127    8.9863 O.2     1  UNL1       -0.4753
     13 C          64.1242   86.0446   14.4132 C.2     1  UNL1        0.3428
     14 O          65.5127   85.4794   14.4623 O.2     1  UNL1       -0.2448
     15 O          62.9705   85.2468   14.9447 O.3     1  UNL1       -0.4454
     16 C          63.1826   83.8334   15.4003 C.3     1  UNL1        0.2087
     17 C          63.0122   82.6999   14.4328 C.3     1  UNL1        0.0445
     18 C          61.7999   81.8203   14.5140 C.3     1  UNL1        0.0210
     19 C          61.6296   80.6869   13.5464 C.3     1  UNL1        0.0722
     20 N          62.6715   80.4330   12.4976 N.3     1  UNL1       -0.2727
     21 C          63.8838   81.3126   12.4165 C.3     1  UNL1        0.0722
     22 C          64.0542   82.4461   13.3841 C.3     1  UNL1        0.0210
     23 C          62.8086   81.0661   13.0058 C.3     1  UNL1        0.0722
     24 C          62.9627   82.0911   13.8807 C.3     1  UNL1        0.0210
@<TRIPOS>BOND
     1    11    12    1
     2    12     1    1
     3     1     2    2
     4     2     3    1
     5     3     4    1
     6     3     5    2
     7     5     6    1
     8     6    13    1
     9    13    14    2
    10    13    15    1
    11    15    16    1
    12    16    17    1
    13    17    18    1
    14    18    19    1
    15    19    20    1
    16    20    21    1
    17    21    22    1
    18    20    23    1
    19    23    24    1
    20     6     7    2
    21     7     8    1
    22     8     9    2
    23     9    10    1
    24    10     1    1
    25     9     5    1
    26    22    17    1
    27    24    17    1
@<TRIPOS>MOLECULE
*****
 24 27 0 0 0
SMALL
GASTEIGER

@<TRIPOS>ATOM
      1 C          62.4794   86.0214   11.6200 C.2     1  UNL1        0.1227
      2 C          63.2397   86.3257   12.8768 C.2     1  UNL1        0.0395
      3 C          63.6097   87.7418   13.2053 C.2     1  UNL1        0.0386
      4 BR         64.3700   88.0460   14.4620 Br      1  UNL1       -0.0489
      5 C          63.2194   88.8535   12.2771 C.2     1  UNL1        0.0281
      6 C          63.4432   90.3356   12.3361 C.2     1  UNL1        0.0963
      7 C          62.8212   90.9473   11.1159 C.2     1  UNL1        0.1049
      8 N          62.2130   89.8433   10.3028 N.2     1  UNL1       -0.2475
      9 C          62.4591   88.5493   11.0204 C.2     1  UNL1        0.0673
     10 C          62.0891   87.1333   10.6918 C.3     1  UNL1        0.1096
     11 C          63.0379   83.4844   11.6537 C.3     1  UNL1        0.2520
     12 O          62.1094   84.6054   11.2915 O.2     1  UNL1       -0.4753
     13 C          64.1627   91.0759   13.4244 C.2     1  UNL1        0.3428
     14 O          63.4588   91.3870   14.7119 O.2     1  UNL1       -0.2448
     15 O          65.5860   91.5051   13.2251 O.3     1  UNL1       -0.4454
     16 C          65.8902   92.8886   12.7317 C.3     1  UNL1        0.2087
     17 C          66.5892   93.0798   11.4184 C.3     1  UNL1        0.0445
     18 C          66.2500   94.2568   10.5526 C.3     1  UNL1        0.0210
     19 C          66.9490   94.4478    9.2392 C.3     1  UNL1        0.0722
     20 N          67.9871   93.4619    8.7917 N.3     1  UNL1       -0.2727
     21 C          68.3263   92.2849    9.6575 C.3     1  UNL1        0.0722
     22 C          67.6273   92.0938   10.9709 C.3     1  UNL1        0.0210
     23 C          67.6309   93.3153    9.5193 C.3     1  UNL1        0.0722
     24 C          66.9989   93.1424   10.7069 C.3     1  UNL1        0.0210
@<TRIPOS>BOND
     1    11    12    1
     2    12     1    1
     3     1     2    2
     4     2     3    1
     5     3     4    1
     6     3     5    2
     7     5     6    1
     8     6    13    1
     9    13    14    2
    10    13    15    1
    11    15    16    1
    12    16    17    1
    13    17    18    1
    14    18    19    1
    15    19    20    1
    16    20    21    1
    17    21    22    1
    18    20    23    1
    19    23    24    1
    20     6     7    2
    21     7     8    1
    22     8     9    2
    23     9    10    1
    24    10     1    1
    25     9     5    1
    26    22    17    1
    27    24    17    1
@<TRIPOS>MOLECULE
*****
 24 27 0 0 0
SMALL
GASTEIGER

@<TRIPOS>ATOM
      1 C          66.0207   93.8649   11.5079 C.2     1  UNL1        0.1227
      2 C          66.1165   93.1039   12.7970 C.2     1  UNL1        0.0395
      3 C          65.2660   91.8876   13.0148 C.2     1  UNL1        0.0386
      4 BR         65.3617   91.1266   14.3039 Br      1  UNL1       -0.0489
      5 C          64.3198   91.4324   11.9436 C.2     1  UNL1        0.0281
      6 C          63.3628   90.2794   11.8734 C.2     1  UNL1        0.0963
      7 C          62.6757   90.3278   10.5409 C.2     1  UNL1        0.1049
      8 N          63.2080   91.5107    9.7877 N.2     1  UNL1       -0.2475
      9 C          64.2241   92.1934   10.6546 C.2     1  UNL1        0.0673
     10 C          65.0745   93.4096   10.4367 C.3     1  UNL1        0.1096
     11 C          66.2552   96.4474   11.3497 C.3     1  UNL1        0.2520
     12 O          66.8712   95.0811   11.2900 O.2     1  UNL1       -0.4753
     13 C          63.1334   89.2575   12.9472 C.2     1  UNL1        0.3428
     14 O          62.4557   89.6522   14.2258 O.2     1  UNL1       -0.2448
     15 O          63.5815   87.8407   12.7423 O.3     1  UNL1       -0.4454
     16 C          62.5756   86.7743   12.4244 C.3     1  UNL1        0.2087
     17 C          61.9202   86.7397   11.0756 C.3     1  UNL1        0.0445
     18 C          62.5765   86.0099    9.9413 C.3     1  UNL1        0.0210
     19 C          61.9210   85.9754    8.5926 C.3     1  UNL1        0.0722
     20 N          60.6092   86.6705    8.3782 N.3     1  UNL1       -0.2727
     21 C          59.9529   87.4003    9.5125 C.3     1  UNL1        0.0722
     22 C          60.6084   87.4349   10.8612 C.3     1  UNL1        0.0210
     23 C          60.9301   86.7171    9.1349 C.3     1  UNL1        0.0722
     24 C          61.5228   86.7484   10.3545 C.3     1  UNL1        0.0210
@<TRIPOS>BOND
     1    11    12    1
     2    12     1    1
     3     1     2    2
     4     2     3    1
     5     3     4    1
     6     3     5    2
     7     5     6    1
     8     6    13    1
     9    13    14    2
    10    13    15    1
    11    15    16    1
    12    16    17    1
    13    17    18    1
    14    18    19    1
    15    19    20    1
    16    20    21    1
    17    21    22    1
    18    20    23    1
    19    23    24    1
    20     6     7    2
    21     7     8    1
    22     8     9    2
    23     9    10    1
    24    10     1    1
    25     9     5    1
    26    22    17    1
    27    24    17    1
