@<TRIPOS>MOLECULE
*****
 28 32 0 0 0
SMALL
GASTEIGER

@<TRIPOS>ATOM
      1 C          63.7855   87.8895   13.4872 C.ar    1  UNL1        0.1770
      2 N          64.4490   87.0683   14.5527 N.ar    1  UNL1       -0.2018
      3 C          64.0674   85.6338   14.3373 C.ar    1  UNL1        0.1806
      4 N          64.4226   84.3786   15.0778 N.ar    1  UNL1       -0.2238
      5 C          63.8785   83.0580   14.6195 C.ar    1  UNL1        0.1007
      6 C          62.9791   82.9927   13.4208 C.ar    1  UNL1        0.0223
      7 C          62.6238   84.2479   12.6804 C.ar    1  UNL1        0.0223
      8 C          63.1680   85.5684   13.1386 C.ar    1  UNL1        0.1016
      9 N          62.9938   86.9626   12.6132 N.ar    1  UNL1       -0.2839
     10 C          62.1721   87.3599   11.4228 C.ar    1  UNL1        0.0658
     11 C          61.2783   88.5623   11.4960 C.ar    1  UNL1        0.0173
     12 C          60.4567   88.9596   10.3057 C.ar    1  UNL1       -0.0028
     13 C          60.5288   88.1546    9.0421 C.ar    1  UNL1       -0.0224
     14 C          61.4226   86.9522    8.9688 C.ar    1  UNL1       -0.0026
     15 C          61.4947   86.1472    7.7052 C.ar    1  UNL1       -0.0003
     16 C          62.3885   84.9448    7.6320 C.ar    1  UNL1       -0.0000
     17 C          63.2102   84.5474    8.8224 C.ar    1  UNL1        0.0000
     18 C          63.1381   85.3525   10.0860 C.ar    1  UNL1        0.0014
     19 C          62.2443   86.5548   10.1592 C.ar    1  UNL1        0.0159
     20 C          59.7071   88.5520    7.8517 C.3     1  UNL1        0.0224
     21 C          59.4190   89.5089    6.7332 C.3     1  UNL1        0.0047
     22 C          58.5722   88.2833    6.9085 C.3     1  UNL1        0.0047
     23 S          63.8946   89.3767   13.3243 S.3     1  UNL1       -0.0722
     24 C          65.7145   90.8464   14.4545 C.3     1  UNL1        0.0181
     25 C          64.3491   90.2259   14.4741 C.3     1  UNL1        0.0910
     26 C          63.4380   90.4546   15.6436 C.2     1  UNL1        0.0605
     27 O          63.5634   91.7080   16.4582 O.co2   1  UNL1       -0.5483
     28 O          62.4016   89.4300   15.9985 O.co2   1  UNL1       -0.5483
@<TRIPOS>UNITY_ATOM_ATTR
27 1
charge -1
@<TRIPOS>BOND
     1    24    25    1
     2    25    23    1
     3    23     1    1
     4     1     2   ar
     5     2     3   ar
     6     3     4   ar
     7     4     5   ar
     8     5     6   ar
     9     6     7   ar
    10     7     8   ar
    11     8     9   ar
    12     9    10    1
    13    10    11   ar
    14    11    12   ar
    15    12    13   ar
    16    13    20    1
    17    20    21    1
    18    21    22    1
    19    13    14   ar
    20    14    15   ar
    21    15    16   ar
    22    16    17   ar
    23    17    18   ar
    24    18    19   ar
    25    25    26    1
    26    26    27   ar
    27    26    28   ar
    28     9     1   ar
    29    19    10   ar
    30     8     3   ar
    31    22    20    1
    32    19    14   ar
@<TRIPOS>MOLECULE
*****
 28 32 0 0 0
SMALL
GASTEIGER

@<TRIPOS>ATOM
      1 C          62.7821   84.5744   13.7202 C.ar    1  UNL1        0.1770
      2 N          63.0582   85.2393   15.0362 N.ar    1  UNL1       -0.2018
      3 C          63.4086   86.6727   14.7667 C.ar    1  UNL1        0.1806
      4 N          63.7741   87.8054   15.6797 N.ar    1  UNL1       -0.2238
      5 C          64.0802   89.1589   15.1102 C.ar    1  UNL1        0.1007
      6 C          64.0206   89.3798   13.6277 C.ar    1  UNL1        0.0223
      7 C          63.6550   88.2471   12.7147 C.ar    1  UNL1        0.0223
      8 C          63.3490   86.8936   13.2842 C.ar    1  UNL1        0.1016
      9 N          62.9618   85.5968   12.6375 N.ar    1  UNL1       -0.2839
     10 C          62.7854   85.3634   11.1663 C.ar    1  UNL1        0.0658
     11 C          63.6530   84.3674   10.4556 C.ar    1  UNL1        0.0173
     12 C          63.4766   84.1339    8.9844 C.ar    1  UNL1       -0.0028
     13 C          62.4325   84.8965    8.2239 C.ar    1  UNL1       -0.0224
     14 C          61.5648   85.8925    8.9347 C.ar    1  UNL1       -0.0026
     15 C          60.5207   86.6550    8.1742 C.ar    1  UNL1       -0.0003
     16 C          59.6530   87.6510    8.8849 C.ar    1  UNL1       -0.0000
     17 C          59.8295   87.8845   10.3561 C.ar    1  UNL1        0.0000
     18 C          60.8736   87.1219   11.1165 C.ar    1  UNL1        0.0014
     19 C          61.7412   86.1259   10.4058 C.ar    1  UNL1        0.0159
     20 C          62.2560   84.6630    6.7528 C.3     1  UNL1        0.0224
     21 C          61.4110   84.2004    5.6031 C.3     1  UNL1        0.0047
     22 C          62.7955   84.7213    5.3544 C.3     1  UNL1        0.0047
     23 S          62.3943   83.1390   13.5219 S.3     1  UNL1       -0.0722
     24 C          64.8412   82.5475   12.8794 C.3     1  UNL1        0.0181
     25 C          63.4452   82.1136   13.2151 C.3     1  UNL1        0.0910
     26 C          63.0999   80.6541   13.2440 C.2     1  UNL1        0.0605
     27 O          63.1478   79.8975   14.5383 O.co2   1  UNL1       -0.5483
     28 O          62.7068   79.9512   11.9785 O.co2   1  UNL1       -0.5483
@<TRIPOS>UNITY_ATOM_ATTR
27 1
charge -1
@<TRIPOS>BOND
     1    24    25    1
     2    25    23    1
     3    23     1    1
     4     1     2   ar
     5     2     3   ar
     6     3     4   ar
     7     4     5   ar
     8     5     6   ar
     9     6     7   ar
    10     7     8   ar
    11     8     9   ar
    12     9    10    1
    13    10    11   ar
    14    11    12   ar
    15    12    13   ar
    16    13    20    1
    17    20    21    1
    18    21    22    1
    19    13    14   ar
    20    14    15   ar
    21    15    16   ar
    22    16    17   ar
    23    17    18   ar
    24    18    19   ar
    25    25    26    1
    26    26    27   ar
    27    26    28   ar
    28     9     1   ar
    29    19    10   ar
    30     8     3   ar
    31    22    20    1
    32    19    14   ar
@<TRIPOS>MOLECULE
*****
 28 32 0 0 0
SMALL
GASTEIGER

@<TRIPOS>ATOM
      1 C          63.6062   90.4887   13.8080 C.ar    1  UNL1        0.1770
      2 N          64.5936   91.5035   14.3032 N.ar    1  UNL1       -0.2018
      3 C          65.1504   92.2274   13.1133 C.ar    1  UNL1        0.1806
      4 N          66.1601   93.3300   12.9912 N.ar    1  UNL1       -0.2238
      5 C          66.5264   93.8651   11.6387 C.ar    1  UNL1        0.1007
      6 C          65.8831   93.2977   10.4082 C.ar    1  UNL1        0.0223
      7 C          64.8735   92.1951   10.5302 C.ar    1  UNL1        0.0223
      8 C          64.5071   91.6600   11.8827 C.ar    1  UNL1        0.1016
      9 N          63.5527   90.5854   12.3121 N.ar    1  UNL1       -0.2839
     10 C          62.6954   89.7535   11.4049 C.ar    1  UNL1        0.0658
     11 C          61.8661   90.4134   10.3435 C.ar    1  UNL1        0.0173
     12 C          61.0088   89.5816    9.4362 C.ar    1  UNL1       -0.0028
     13 C          60.9808   88.0898    9.5904 C.ar    1  UNL1       -0.0224
     14 C          61.8102   87.4298   10.6519 C.ar    1  UNL1       -0.0026
     15 C          61.7822   85.9381   10.8061 C.ar    1  UNL1       -0.0003
     16 C          62.6115   85.2782   11.8676 C.ar    1  UNL1       -0.0000
     17 C          63.4688   86.1100   12.7748 C.ar    1  UNL1        0.0000
     18 C          63.4968   87.6018   12.6206 C.ar    1  UNL1        0.0014
     19 C          62.6675   88.2617   11.5591 C.ar    1  UNL1        0.0159
     20 C          60.1235   87.2580    8.6832 C.3     1  UNL1        0.0224
     21 C          58.8026   86.9986    8.0215 C.3     1  UNL1        0.0047
     22 C          59.9595   86.0766    7.7736 C.3     1  UNL1        0.0047
     23 S          62.8118   89.5431   14.6594 S.3     1  UNL1       -0.0722
     24 C          63.4852   90.5415   16.9615 C.3     1  UNL1        0.0181
     25 C          63.1700   89.3523   16.1034 C.3     1  UNL1        0.0910
     26 C          63.2131   87.9720   16.6893 C.2     1  UNL1        0.0605
     27 O          62.8331   87.7540   18.1239 O.co2   1  UNL1       -0.5483
     28 O          63.6362   86.8099   15.8406 O.co2   1  UNL1       -0.5483
@<TRIPOS>UNITY_ATOM_ATTR
27 1
charge -1
@<TRIPOS>BOND
     1    24    25    1
     2    25    23    1
     3    23     1    1
     4     1     2   ar
     5     2     3   ar
     6     3     4   ar
     7     4     5   ar
     8     5     6   ar
     9     6     7   ar
    10     7     8   ar
    11     8     9   ar
    12     9    10    1
    13    10    11   ar
    14    11    12   ar
    15    12    13   ar
    16    13    20    1
    17    20    21    1
    18    21    22    1
    19    13    14   ar
    20    14    15   ar
    21    15    16   ar
    22    16    17   ar
    23    17    18   ar
    24    18    19   ar
    25    25    26    1
    26    26    27   ar
    27    26    28   ar
    28     9     1   ar
    29    19    10   ar
    30     8     3   ar
    31    22    20    1
    32    19    14   ar
@<TRIPOS>MOLECULE
*****
 28 32 0 0 0
SMALL
GASTEIGER

@<TRIPOS>ATOM
      1 C          62.5196   86.0213   11.6234 C.ar    1  UNL1        0.1770
      2 N          61.5862   85.4638   10.5899 N.ar    1  UNL1       -0.2018
      3 C          60.9410   86.6160    9.8783 C.ar    1  UNL1        0.1806
      4 N          59.9358   86.6731    8.7665 N.ar    1  UNL1       -0.2238
      5 C          59.4653   87.9998    8.2483 C.ar    1  UNL1        0.1007
      6 C          60.0000   89.2693    8.8420 C.ar    1  UNL1        0.0223
      7 C          61.0052   89.2122    9.9538 C.ar    1  UNL1        0.0223
      8 C          61.4758   87.8855   10.4720 C.ar    1  UNL1        0.1016
      9 N          62.4513   87.5180   11.5505 N.ar    1  UNL1       -0.2839
     10 C          63.2232   88.4785   12.4059 C.ar    1  UNL1        0.0658
     11 C          63.5955   88.1009   13.8090 C.ar    1  UNL1        0.0173
     12 C          64.3674   89.0614   14.6644 C.ar    1  UNL1       -0.0028
     13 C          64.7668   90.3995   14.1167 C.ar    1  UNL1       -0.0224
     14 C          64.3944   90.7771   12.7136 C.ar    1  UNL1       -0.0026
     15 C          64.7939   92.1151   12.1659 C.ar    1  UNL1       -0.0003
     16 C          64.4215   92.4927   10.7628 C.ar    1  UNL1       -0.0000
     17 C          63.6497   91.5322    9.9074 C.ar    1  UNL1        0.0000
     18 C          63.2502   90.1941   10.4551 C.ar    1  UNL1        0.0014
     19 C          63.6226   89.8166   11.8582 C.ar    1  UNL1        0.0159
     20 C          65.5386   91.3600   14.9722 C.3     1  UNL1        0.0224
     21 C          66.8326   92.0272   15.3333 C.3     1  UNL1        0.0047
     22 C          65.5815   92.3564   16.0925 C.3     1  UNL1        0.0047
     23 S          63.3716   85.2223   12.5645 S.3     1  UNL1       -0.0722
     24 C          63.0317   82.7151   11.9746 C.3     1  UNL1        0.0181
     25 C          62.9526   83.8388   12.9649 C.3     1  UNL1        0.0910
     26 C          62.4544   83.5792   14.3558 C.2     1  UNL1        0.0605
     27 O          61.9171   84.7092   15.1831 O.co2   1  UNL1       -0.5483
     28 O          62.4936   82.1896   14.9193 O.co2   1  UNL1       -0.5483
@<TRIPOS>UNITY_ATOM_ATTR
27 1
charge -1
@<TRIPOS>BOND
     1    24    25    1
     2    25    23    1
     3    23     1    1
     4     1     2   ar
     5     2     3   ar
     6     3     4   ar
     7     4     5   ar
     8     5     6   ar
     9     6     7   ar
    10     7     8   ar
    11     8     9   ar
    12     9    10    1
    13    10    11   ar
    14    11    12   ar
    15    12    13   ar
    16    13    20    1
    17    20    21    1
    18    21    22    1
    19    13    14   ar
    20    14    15   ar
    21    15    16   ar
    22    16    17   ar
    23    17    18   ar
    24    18    19   ar
    25    25    26    1
    26    26    27   ar
    27    26    28   ar
    28     9     1   ar
    29    19    10   ar
    30     8     3   ar
    31    22    20    1
    32    19    14   ar
@<TRIPOS>MOLECULE
*****
 28 32 0 0 0
SMALL
GASTEIGER

@<TRIPOS>ATOM
      1 C          63.1483   88.2791   12.5934 C.ar    1  UNL1        0.1770
      2 N          62.7485   89.5134   11.8406 N.ar    1  UNL1       -0.2018
      3 C          61.7941   89.1067   10.7572 C.ar    1  UNL1        0.1806
      4 N          61.0736   89.8972    9.7056 N.ar    1  UNL1       -0.2238
      5 C          60.1630   89.2021    8.7373 C.ar    1  UNL1        0.1007
      6 C          59.9731   87.7165    8.8205 C.ar    1  UNL1        0.0223
      7 C          60.6937   86.9260    9.8721 C.ar    1  UNL1        0.0223
      8 C          61.6042   87.6211   10.8404 C.ar    1  UNL1        0.1016
      9 N          62.4411   87.1096   11.9753 N.ar    1  UNL1       -0.2839
     10 C          62.5514   85.6797   12.4148 C.ar    1  UNL1        0.0658
     11 C          62.2040   85.2991   13.8234 C.ar    1  UNL1        0.0173
     12 C          62.3143   83.8692   14.2630 C.ar    1  UNL1       -0.0028
     13 C          62.7721   82.8199   13.2938 C.ar    1  UNL1       -0.0224
     14 C          63.1196   83.2004   11.8850 C.ar    1  UNL1       -0.0026
     15 C          63.5773   82.1511   10.9159 C.ar    1  UNL1       -0.0003
     16 C          63.9248   82.5317    9.5072 C.ar    1  UNL1       -0.0000
     17 C          63.8144   83.9616    9.0677 C.ar    1  UNL1        0.0000
     18 C          63.3567   85.0109   10.0369 C.ar    1  UNL1        0.0014
     19 C          63.0092   84.6303   11.4455 C.ar    1  UNL1        0.0159
     20 C          62.8824   81.3899   13.7333 C.3     1  UNL1        0.0224
     21 C          63.6893   80.2699   14.3201 C.3     1  UNL1        0.0047
     22 C          62.2666   80.0334   13.9078 C.3     1  UNL1        0.0047
     23 S          64.0901   88.2240   13.7597 S.3     1  UNL1       -0.0722
     24 C          65.1166   90.5463   14.3101 C.3     1  UNL1        0.0181
     25 C          64.2172   89.4036   14.6775 C.3     1  UNL1        0.0910
     26 C          63.4449   89.4402   15.9630 C.2     1  UNL1        0.0605
     27 O          62.8429   88.1810   16.5124 O.co2   1  UNL1       -0.5483
     28 O          63.2746   90.7362   16.6989 O.co2   1  UNL1       -0.5483
@<TRIPOS>UNITY_ATOM_ATTR
27 1
charge -1
@<TRIPOS>BOND
     1    24    25    1
     2    25    23    1
     3    23     1    1
     4     1     2   ar
     5     2     3   ar
     6     3     4   ar
     7     4     5   ar
     8     5     6   ar
     9     6     7   ar
    10     7     8   ar
    11     8     9   ar
    12     9    10    1
    13    10    11   ar
    14    11    12   ar
    15    12    13   ar
    16    13    20    1
    17    20    21    1
    18    21    22    1
    19    13    14   ar
    20    14    15   ar
    21    15    16   ar
    22    16    17   ar
    23    17    18   ar
    24    18    19   ar
    25    25    26    1
    26    26    27   ar
    27    26    28   ar
    28     9     1   ar
    29    19    10   ar
    30     8     3   ar
    31    22    20    1
    32    19    14   ar
@<TRIPOS>MOLECULE
*****
 28 32 0 0 0
SMALL
GASTEIGER

@<TRIPOS>ATOM
      1 C          59.9741   94.3405    0.4267 C.ar    1  UNL1        0.1770
      2 N          59.5079   93.8255    1.7561 N.ar    1  UNL1       -0.2018
      3 C          60.6061   92.9865    2.3392 C.ar    1  UNL1        0.1806
      4 N          60.7116   92.2254    3.6274 N.ar    1  UNL1       -0.2238
      5 C          61.9619   91.4606    3.9465 C.ar    1  UNL1        0.1007
      6 C          63.1068   91.4570    2.9773 C.ar    1  UNL1        0.0223
      7 C          63.0014   92.2182    1.6892 C.ar    1  UNL1        0.0223
      8 C          61.7510   92.9830    1.3701 C.ar    1  UNL1        0.1016
      9 N          61.3604   93.8198    0.1881 N.ar    1  UNL1       -0.2839
     10 C          62.2074   94.0886   -1.0204 C.ar    1  UNL1        0.0658
     11 C          61.8748   93.4364   -2.3296 C.ar    1  UNL1        0.0173
     12 C          62.7218   93.7053   -3.5380 C.ar    1  UNL1       -0.0028
     13 C          63.9014   94.6263   -3.4373 C.ar    1  UNL1       -0.0224
     14 C          64.2341   95.2786   -2.1280 C.ar    1  UNL1       -0.0026
     15 C          65.4137   96.1996   -2.0273 C.ar    1  UNL1       -0.0003
     16 C          65.7463   96.8518   -0.7181 C.ar    1  UNL1       -0.0000
     17 C          64.8993   96.5829    0.4903 C.ar    1  UNL1        0.0000
     18 C          63.7197   95.6619    0.3896 C.ar    1  UNL1        0.0014
     19 C          63.3871   95.0097   -0.9196 C.ar    1  UNL1        0.0159
     20 C          64.7484   94.8952   -4.6457 C.3     1  UNL1        0.0224
     21 C          65.4930   94.3944   -5.8477 C.3     1  UNL1        0.0047
     22 C          65.4708   95.8616   -5.5367 C.3     1  UNL1        0.0047
     23 S          59.1914   95.2215   -0.5013 S.3     1  UNL1       -0.0722
     24 C          56.7622   95.6899   -1.2948 C.3     1  UNL1        0.0181
     25 C          57.8992   94.7340   -1.0867 C.3     1  UNL1        0.0910
     26 C          57.7442   93.2905   -1.4641 C.2     1  UNL1        0.0605
     27 O          58.5512   92.7193   -2.5921 O.co2   1  UNL1       -0.5483
     28 O          56.7822   92.4182   -0.7133 O.co2   1  UNL1       -0.5483
@<TRIPOS>UNITY_ATOM_ATTR
27 1
charge -1
@<TRIPOS>BOND
     1    24    25    1
     2    25    23    1
     3    23     1    1
     4     1     2   ar
     5     2     3   ar
     6     3     4   ar
     7     4     5   ar
     8     5     6   ar
     9     6     7   ar
    10     7     8   ar
    11     8     9   ar
    12     9    10    1
    13    10    11   ar
    14    11    12   ar
    15    12    13   ar
    16    13    20    1
    17    20    21    1
    18    21    22    1
    19    13    14   ar
    20    14    15   ar
    21    15    16   ar
    22    16    17   ar
    23    17    18   ar
    24    18    19   ar
    25    25    26    1
    26    26    27   ar
    27    26    28   ar
    28     9     1   ar
    29    19    10   ar
    30     8     3   ar
    31    22    20    1
    32    19    14   ar
@<TRIPOS>MOLECULE
*****
 28 32 0 0 0
SMALL
GASTEIGER

@<TRIPOS>ATOM
      1 C          63.5049   87.6476   13.3122 C.ar    1  UNL1        0.1770
      2 N          63.3712   88.9841   12.6445 N.ar    1  UNL1       -0.2018
      3 C          62.5161   88.8092   11.4245 C.ar    1  UNL1        0.1806
      4 N          62.0459   89.7787   10.3810 N.ar    1  UNL1       -0.2238
      5 C          61.1809   89.3037    9.2513 C.ar    1  UNL1        0.1007
      6 C          60.7863   87.8591    9.1651 C.ar    1  UNL1        0.0223
      7 C          61.2565   86.8896   10.2086 C.ar    1  UNL1        0.0223
      8 C          62.1214   87.3646   11.3383 C.ar    1  UNL1        0.1016
      9 N          62.7325   86.6467   12.5050 N.ar    1  UNL1       -0.2839
     10 C          62.5954   85.1846   12.8107 C.ar    1  UNL1        0.0658
     11 C          62.0041   84.7437   14.1168 C.ar    1  UNL1        0.0173
     12 C          61.8669   83.2816   14.4226 C.ar    1  UNL1       -0.0028
     13 C          62.3210   82.2604   13.4222 C.ar    1  UNL1       -0.0224
     14 C          62.9123   82.7012   12.1160 C.ar    1  UNL1       -0.0026
     15 C          63.3664   81.6800   11.1156 C.ar    1  UNL1       -0.0003
     16 C          63.9577   82.1209    9.8094 C.ar    1  UNL1       -0.0000
     17 C          64.0948   83.5829    9.5037 C.ar    1  UNL1        0.0000
     18 C          63.6407   84.6042   10.5041 C.ar    1  UNL1        0.0014
     19 C          63.0495   84.1633   11.8102 C.ar    1  UNL1        0.0159
     20 C          62.1838   80.7983   13.7279 C.3     1  UNL1        0.0224
     21 C          62.8060   79.4462   13.9141 C.3     1  UNL1        0.0047
     22 C          61.3241   79.6181   14.0713 C.3     1  UNL1        0.0047
     23 S          64.2758   87.3621   14.5669 S.3     1  UNL1       -0.0722
     24 C          63.3782   88.9097   16.4508 C.3     1  UNL1        0.0181
     25 C          63.6206   87.5337   15.9053 C.3     1  UNL1        0.0910
     26 C          63.2077   86.3291   16.6981 C.2     1  UNL1        0.0605
     27 O          61.8785   86.3080   17.3930 O.co2   1  UNL1       -0.5483
     28 O          64.1241   85.1456   16.7961 O.co2   1  UNL1       -0.5483
@<TRIPOS>UNITY_ATOM_ATTR
27 1
charge -1
@<TRIPOS>BOND
     1    24    25    1
     2    25    23    1
     3    23     1    1
     4     1     2   ar
     5     2     3   ar
     6     3     4   ar
     7     4     5   ar
     8     5     6   ar
     9     6     7   ar
    10     7     8   ar
    11     8     9   ar
    12     9    10    1
    13    10    11   ar
    14    11    12   ar
    15    12    13   ar
    16    13    20    1
    17    20    21    1
    18    21    22    1
    19    13    14   ar
    20    14    15   ar
    21    15    16   ar
    22    16    17   ar
    23    17    18   ar
    24    18    19   ar
    25    25    26    1
    26    26    27   ar
    27    26    28   ar
    28     9     1   ar
    29    19    10   ar
    30     8     3   ar
    31    22    20    1
    32    19    14   ar
@<TRIPOS>MOLECULE
*****
 28 32 0 0 0
SMALL
GASTEIGER

@<TRIPOS>ATOM
      1 C          62.0090   87.5603   10.8322 C.ar    1  UNL1        0.1770
      2 N          62.2899   89.0333   10.7953 N.ar    1  UNL1       -0.2018
      3 C          63.1256   89.3760   11.9929 C.ar    1  UNL1        0.1806
      4 N          63.7025   90.6735   12.4762 N.ar    1  UNL1       -0.2238
      5 C          64.5149   90.7098   13.7366 C.ar    1  UNL1        0.1007
      6 C          64.7504   89.4486   14.5137 C.ar    1  UNL1        0.0223
      7 C          64.1735   88.1511   14.0304 C.ar    1  UNL1        0.0223
      8 C          63.3611   88.1148   12.7700 C.ar    1  UNL1        0.1016
      9 N          62.6710   86.9926   12.0526 N.ar    1  UNL1       -0.2839
     10 C          62.6471   85.5552   12.4806 C.ar    1  UNL1        0.0658
     11 C          62.1803   85.1905   13.8586 C.ar    1  UNL1        0.0173
     12 C          62.1564   83.7531   14.2866 C.ar    1  UNL1       -0.0028
     13 C          62.5994   82.6802   13.3365 C.ar    1  UNL1       -0.0224
     14 C          63.0663   83.0448   11.9584 C.ar    1  UNL1       -0.0026
     15 C          63.5093   81.9720   11.0083 C.ar    1  UNL1       -0.0003
     16 C          63.9762   82.3366    9.6302 C.ar    1  UNL1       -0.0000
     17 C          64.0000   83.7741    9.2023 C.ar    1  UNL1        0.0000
     18 C          63.5570   84.8469   10.1524 C.ar    1  UNL1        0.0014
     19 C          63.0902   84.4823   11.5304 C.ar    1  UNL1        0.0159
     20 C          62.5755   81.2428   13.7644 C.3     1  UNL1        0.0224
     21 C          63.2874   80.0326   14.2922 C.3     1  UNL1        0.0047
     22 C          61.8223   79.9633   13.9779 C.3     1  UNL1        0.0047
     23 S          61.2069   86.7903    9.8255 S.3     1  UNL1       -0.0722
     24 C          60.1914   89.0100    8.9358 C.3     1  UNL1        0.0181
     25 C          60.3065   87.5160    8.8701 C.3     1  UNL1        0.0910
     26 C          59.5212   86.7473    7.8489 C.2     1  UNL1        0.0605
     27 O          60.0919   85.4961    7.2501 O.co2   1  UNL1       -0.5483
     28 O          58.1652   87.2300    7.4267 O.co2   1  UNL1       -0.5483
@<TRIPOS>UNITY_ATOM_ATTR
27 1
charge -1
@<TRIPOS>BOND
     1    24    25    1
     2    25    23    1
     3    23     1    1
     4     1     2   ar
     5     2     3   ar
     6     3     4   ar
     7     4     5   ar
     8     5     6   ar
     9     6     7   ar
    10     7     8   ar
    11     8     9   ar
    12     9    10    1
    13    10    11   ar
    14    11    12   ar
    15    12    13   ar
    16    13    20    1
    17    20    21    1
    18    21    22    1
    19    13    14   ar
    20    14    15   ar
    21    15    16   ar
    22    16    17   ar
    23    17    18   ar
    24    18    19   ar
    25    25    26    1
    26    26    27   ar
    27    26    28   ar
    28     9     1   ar
    29    19    10   ar
    30     8     3   ar
    31    22    20    1
    32    19    14   ar
@<TRIPOS>MOLECULE
*****
 28 32 0 0 0
SMALL
GASTEIGER

@<TRIPOS>ATOM
      1 C          63.8723   86.4773   13.2353 C.ar    1  UNL1        0.1770
      2 N          63.6226   87.9558   13.2771 N.ar    1  UNL1       -0.2018
      3 C          62.7380   88.3094   12.1184 C.ar    1  UNL1        0.1806
      4 N          62.1646   89.6158   11.6555 N.ar    1  UNL1       -0.2238
      5 C          61.2942   89.6624   10.4348 C.ar    1  UNL1        0.1007
      6 C          60.9972   88.4024    9.6770 C.ar    1  UNL1        0.0223
      7 C          61.5707   87.0959   10.1399 C.ar    1  UNL1        0.0223
      8 C          62.4411   87.0494   11.3606 C.ar    1  UNL1        0.1016
      9 N          63.1421   85.9171   12.0509 N.ar    1  UNL1       -0.2839
     10 C          63.1172   84.4774   11.6305 C.ar    1  UNL1        0.0658
     11 C          63.6695   84.0765   10.2948 C.ar    1  UNL1        0.0173
     12 C          63.6447   82.6368    9.8744 C.ar    1  UNL1       -0.0028
     13 C          63.0675   81.5981   10.7897 C.ar    1  UNL1       -0.0224
     14 C          62.5151   81.9990   12.1255 C.ar    1  UNL1       -0.0026
     15 C          61.9380   80.9603   13.0408 C.ar    1  UNL1       -0.0003
     16 C          61.3856   81.3612   14.3765 C.ar    1  UNL1       -0.0000
     17 C          61.4105   82.8009   14.7969 C.ar    1  UNL1        0.0000
     18 C          61.9877   83.8396   13.8816 C.ar    1  UNL1        0.0014
     19 C          62.5400   83.4387   12.5459 C.ar    1  UNL1        0.0159
     20 C          63.0426   80.1584   10.3693 C.3     1  UNL1        0.0224
     21 C          62.9897   78.7021   10.7247 C.3     1  UNL1        0.0047
     22 C          63.0525   79.1212    9.2858 C.3     1  UNL1        0.0047
     23 S          64.7059   85.6961   14.2074 S.3     1  UNL1       -0.0722
     24 C          64.4247   83.8780   16.0418 C.3     1  UNL1        0.0181
     25 C          64.1144   85.2458   15.5102 C.3     1  UNL1        0.0910
     26 C          63.2126   86.1635   16.2814 C.2     1  UNL1        0.0605
     27 O          61.9706   85.6256   16.9280 O.co2   1  UNL1       -0.5483
     28 O          63.5529   87.6191   16.4061 O.co2   1  UNL1       -0.5483
@<TRIPOS>UNITY_ATOM_ATTR
27 1
charge -1
@<TRIPOS>BOND
     1    24    25    1
     2    25    23    1
     3    23     1    1
     4     1     2   ar
     5     2     3   ar
     6     3     4   ar
     7     4     5   ar
     8     5     6   ar
     9     6     7   ar
    10     7     8   ar
    11     8     9   ar
    12     9    10    1
    13    10    11   ar
    14    11    12   ar
    15    12    13   ar
    16    13    20    1
    17    20    21    1
    18    21    22    1
    19    13    14   ar
    20    14    15   ar
    21    15    16   ar
    22    16    17   ar
    23    17    18   ar
    24    18    19   ar
    25    25    26    1
    26    26    27   ar
    27    26    28   ar
    28     9     1   ar
    29    19    10   ar
    30     8     3   ar
    31    22    20    1
    32    19    14   ar
